*SPEF "ieee 1481-1999"
*DESIGN "tiny_user_project"
*DATE "11:11:11 Fri 11 11, 1111"
*VENDOR "OpenRCX"
*PROGRAM "Parallel Extraction"
*VERSION "1.0"
*DESIGN_FLOW "NAME_SCOPE LOCAL" "PIN_CAP NONE"
*DIVIDER /
*DELIMITER :
*BUS_DELIMITER []
*T_UNIT 1 NS
*C_UNIT 1 PF
*R_UNIT 1 OHM
*L_UNIT 1 HENRY

*NAME_MAP
*1 io_in[0]
*2 io_in[10]
*3 io_in[11]
*4 io_in[12]
*5 io_in[13]
*6 io_in[14]
*7 io_in[15]
*8 io_in[16]
*9 io_in[17]
*10 io_in[18]
*11 io_in[19]
*12 io_in[1]
*13 io_in[20]
*14 io_in[21]
*15 io_in[22]
*16 io_in[23]
*17 io_in[24]
*18 io_in[25]
*19 io_in[26]
*20 io_in[27]
*21 io_in[28]
*22 io_in[29]
*23 io_in[2]
*24 io_in[30]
*25 io_in[31]
*26 io_in[32]
*27 io_in[33]
*28 io_in[34]
*29 io_in[35]
*30 io_in[36]
*31 io_in[37]
*32 io_in[3]
*33 io_in[4]
*34 io_in[5]
*35 io_in[6]
*36 io_in[7]
*37 io_in[8]
*38 io_in[9]
*39 net50
*40 net60
*41 net61
*42 net62
*43 net63
*44 net64
*45 net65
*46 net66
*47 net67
*48 net68
*49 net69
*50 net51
*51 net70
*52 net71
*53 net72
*54 net73
*55 net74
*56 net75
*57 net76
*58 net77
*59 net78
*60 net79
*61 net52
*62 net80
*63 net81
*64 net82
*65 net83
*66 net84
*67 net85
*68 net86
*69 net87
*70 net53
*71 net54
*72 net55
*73 net56
*74 net57
*75 net58
*76 net59
*77 net88
*78 net98
*79 net99
*80 net100
*81 net101
*82 net102
*83 net103
*84 net104
*85 net105
*86 net106
*87 net107
*88 net89
*89 net108
*90 net109
*91 net110
*92 net111
*93 net112
*94 net113
*95 net114
*96 io_out[27]
*97 io_out[28]
*98 io_out[29]
*99 net90
*100 io_out[30]
*101 io_out[31]
*102 io_out[32]
*103 io_out[33]
*104 io_out[34]
*105 io_out[35]
*106 net115
*107 net116
*108 net91
*109 net92
*110 net93
*111 net94
*112 net95
*113 net96
*114 net97
*115 la_data_in[0]
*116 la_data_in[10]
*117 la_data_in[11]
*118 la_data_in[12]
*119 la_data_in[13]
*120 la_data_in[14]
*121 la_data_in[15]
*122 la_data_in[16]
*123 la_data_in[17]
*124 la_data_in[18]
*125 la_data_in[19]
*126 la_data_in[1]
*127 la_data_in[20]
*128 la_data_in[21]
*129 la_data_in[22]
*130 la_data_in[23]
*131 la_data_in[24]
*132 la_data_in[25]
*133 la_data_in[26]
*134 la_data_in[27]
*135 la_data_in[28]
*136 la_data_in[29]
*137 la_data_in[2]
*138 la_data_in[30]
*139 la_data_in[31]
*140 la_data_in[32]
*141 la_data_in[33]
*142 la_data_in[34]
*143 la_data_in[35]
*144 la_data_in[36]
*145 la_data_in[37]
*146 la_data_in[38]
*147 la_data_in[39]
*148 la_data_in[3]
*149 la_data_in[40]
*150 la_data_in[41]
*151 la_data_in[42]
*152 la_data_in[43]
*153 la_data_in[44]
*154 la_data_in[45]
*155 la_data_in[46]
*156 la_data_in[47]
*157 la_data_in[48]
*158 la_data_in[49]
*159 la_data_in[4]
*160 la_data_in[50]
*161 la_data_in[51]
*162 la_data_in[52]
*163 la_data_in[53]
*164 la_data_in[54]
*165 la_data_in[55]
*166 la_data_in[56]
*167 la_data_in[57]
*168 la_data_in[58]
*169 la_data_in[59]
*170 la_data_in[5]
*171 la_data_in[60]
*172 la_data_in[61]
*173 la_data_in[62]
*174 la_data_in[63]
*175 la_data_in[6]
*176 la_data_in[7]
*177 la_data_in[8]
*178 la_data_in[9]
*179 net117
*180 net127
*181 net128
*182 net129
*183 net130
*184 net131
*185 net132
*186 net133
*187 net134
*188 net135
*189 net136
*190 net118
*191 net137
*192 net138
*193 net139
*194 net140
*195 net141
*196 net142
*197 net143
*198 net144
*199 net145
*200 net146
*201 net119
*202 net147
*203 net148
*204 net149
*205 net150
*206 net151
*207 net152
*208 net153
*209 net154
*210 net155
*211 net156
*212 net120
*213 net157
*214 net158
*215 net159
*216 net160
*217 net161
*218 net162
*219 net163
*220 net164
*221 net165
*222 net166
*223 net121
*224 net167
*225 net168
*226 net169
*227 net170
*228 net171
*229 net172
*230 net173
*231 net174
*232 net175
*233 net176
*234 net122
*235 net177
*236 net178
*237 net179
*238 net180
*239 net123
*240 net124
*241 net125
*242 net126
*243 la_oenb[0]
*244 la_oenb[10]
*245 la_oenb[11]
*246 la_oenb[12]
*247 la_oenb[13]
*248 la_oenb[14]
*249 la_oenb[15]
*250 la_oenb[16]
*251 la_oenb[17]
*252 la_oenb[18]
*253 la_oenb[19]
*254 la_oenb[1]
*255 la_oenb[20]
*256 la_oenb[21]
*257 la_oenb[22]
*258 la_oenb[23]
*259 la_oenb[24]
*260 la_oenb[25]
*261 la_oenb[26]
*262 la_oenb[27]
*263 la_oenb[28]
*264 la_oenb[29]
*265 la_oenb[2]
*266 la_oenb[30]
*267 la_oenb[31]
*268 la_oenb[32]
*269 la_oenb[33]
*270 la_oenb[34]
*271 la_oenb[35]
*272 la_oenb[36]
*273 la_oenb[37]
*274 la_oenb[38]
*275 la_oenb[39]
*276 la_oenb[3]
*277 la_oenb[40]
*278 la_oenb[41]
*279 la_oenb[42]
*280 la_oenb[43]
*281 la_oenb[44]
*282 la_oenb[45]
*283 la_oenb[46]
*284 la_oenb[47]
*285 la_oenb[48]
*286 la_oenb[49]
*287 la_oenb[4]
*288 la_oenb[50]
*289 la_oenb[51]
*290 la_oenb[52]
*291 la_oenb[53]
*292 la_oenb[54]
*293 la_oenb[55]
*294 la_oenb[56]
*295 la_oenb[57]
*296 la_oenb[58]
*297 la_oenb[59]
*298 la_oenb[5]
*299 la_oenb[60]
*300 la_oenb[61]
*301 la_oenb[62]
*302 la_oenb[63]
*303 la_oenb[6]
*304 la_oenb[7]
*305 la_oenb[8]
*306 la_oenb[9]
*307 user_clock2
*308 net181
*309 net182
*310 net183
*313 wb_clk_i
*314 wb_rst_i
*315 net184
*316 wbs_adr_i[0]
*317 wbs_adr_i[10]
*318 wbs_adr_i[11]
*319 wbs_adr_i[12]
*320 wbs_adr_i[13]
*321 wbs_adr_i[14]
*322 wbs_adr_i[15]
*323 wbs_adr_i[16]
*324 wbs_adr_i[17]
*325 wbs_adr_i[18]
*326 wbs_adr_i[19]
*327 wbs_adr_i[1]
*328 wbs_adr_i[20]
*329 wbs_adr_i[21]
*330 wbs_adr_i[22]
*331 wbs_adr_i[23]
*332 wbs_adr_i[24]
*333 wbs_adr_i[25]
*334 wbs_adr_i[26]
*335 wbs_adr_i[27]
*336 wbs_adr_i[28]
*337 wbs_adr_i[29]
*338 wbs_adr_i[2]
*339 wbs_adr_i[30]
*340 wbs_adr_i[31]
*341 wbs_adr_i[3]
*342 wbs_adr_i[4]
*343 wbs_adr_i[5]
*344 wbs_adr_i[6]
*345 wbs_adr_i[7]
*346 wbs_adr_i[8]
*347 wbs_adr_i[9]
*348 wbs_cyc_i
*349 wbs_dat_i[0]
*350 wbs_dat_i[10]
*351 wbs_dat_i[11]
*352 wbs_dat_i[12]
*353 wbs_dat_i[13]
*354 wbs_dat_i[14]
*355 wbs_dat_i[15]
*356 wbs_dat_i[16]
*357 wbs_dat_i[17]
*358 wbs_dat_i[18]
*359 wbs_dat_i[19]
*360 wbs_dat_i[1]
*361 wbs_dat_i[20]
*362 wbs_dat_i[21]
*363 wbs_dat_i[22]
*364 wbs_dat_i[23]
*365 wbs_dat_i[24]
*366 wbs_dat_i[25]
*367 wbs_dat_i[26]
*368 wbs_dat_i[27]
*369 wbs_dat_i[28]
*370 wbs_dat_i[29]
*371 wbs_dat_i[2]
*372 wbs_dat_i[30]
*373 wbs_dat_i[31]
*374 wbs_dat_i[3]
*375 wbs_dat_i[4]
*376 wbs_dat_i[5]
*377 wbs_dat_i[6]
*378 wbs_dat_i[7]
*379 wbs_dat_i[8]
*380 wbs_dat_i[9]
*381 net185
*382 net195
*383 net196
*384 net197
*385 net198
*386 net199
*387 net200
*388 net201
*389 net202
*390 net203
*391 net204
*392 net186
*393 net205
*394 net206
*395 net207
*396 net208
*397 net209
*398 net210
*399 net211
*400 net212
*401 net213
*402 net214
*403 net187
*404 net215
*405 net216
*406 net188
*407 net189
*408 net190
*409 net191
*410 net192
*411 net193
*412 net194
*413 wbs_sel_i[0]
*414 wbs_sel_i[1]
*415 wbs_sel_i[2]
*416 wbs_sel_i[3]
*417 wbs_stb_i
*418 wbs_we_i
*419 _000_
*420 _001_
*421 _002_
*422 _003_
*423 _004_
*424 _005_
*425 _006_
*426 _007_
*427 _008_
*428 _009_
*429 _010_
*430 _011_
*431 _012_
*432 _013_
*433 _014_
*434 _015_
*435 _016_
*436 _017_
*437 _018_
*438 _019_
*439 _020_
*440 _021_
*441 _022_
*442 _023_
*443 _024_
*444 _025_
*445 _026_
*446 _027_
*447 _028_
*448 _029_
*449 _030_
*450 _031_
*451 _032_
*452 _033_
*453 _034_
*454 _035_
*455 _036_
*456 _037_
*457 _038_
*458 _039_
*459 _040_
*460 _041_
*461 _042_
*462 _043_
*463 _044_
*464 _045_
*465 _046_
*466 _047_
*467 _048_
*468 _049_
*469 _050_
*470 _051_
*471 _052_
*472 _053_
*473 _054_
*474 _055_
*475 _056_
*476 _057_
*477 _058_
*478 _059_
*479 _060_
*480 _061_
*481 _062_
*482 _063_
*483 _064_
*484 _065_
*485 _066_
*486 _067_
*487 _068_
*488 _069_
*489 _070_
*490 _071_
*491 _072_
*492 _073_
*493 _074_
*494 _075_
*495 _076_
*496 _077_
*497 _078_
*498 _079_
*499 _080_
*500 _081_
*501 _082_
*502 _083_
*503 _084_
*504 _085_
*505 _086_
*506 _087_
*507 _088_
*508 _089_
*509 _090_
*510 _091_
*511 _092_
*512 _093_
*513 _094_
*514 _095_
*515 _096_
*516 _097_
*517 _098_
*518 _099_
*519 _100_
*520 _101_
*521 _102_
*522 _103_
*523 _104_
*524 _105_
*525 _106_
*526 _107_
*527 _108_
*528 _109_
*529 _110_
*530 _111_
*531 _112_
*532 _113_
*533 _114_
*534 _115_
*535 _116_
*536 _117_
*537 _118_
*538 _119_
*539 _120_
*540 _121_
*541 _122_
*542 _123_
*543 _124_
*544 _125_
*545 _126_
*546 _127_
*547 _128_
*548 _129_
*549 _130_
*550 _131_
*551 _132_
*552 _133_
*553 _134_
*554 _135_
*555 _136_
*556 _137_
*557 _138_
*558 _139_
*559 _140_
*560 _141_
*561 _142_
*562 _143_
*563 _144_
*564 _145_
*565 _146_
*566 _147_
*567 _148_
*568 _149_
*569 _150_
*570 _151_
*571 _152_
*572 _153_
*573 _154_
*574 _155_
*575 _156_
*576 _157_
*577 _158_
*578 _159_
*579 _160_
*580 _161_
*581 _162_
*582 _163_
*583 _164_
*584 _165_
*585 _166_
*586 _167_
*587 _168_
*588 _169_
*589 _170_
*590 _171_
*591 _172_
*592 _173_
*593 _174_
*594 _175_
*595 _176_
*596 _177_
*597 _178_
*598 _179_
*599 _180_
*600 _181_
*601 _182_
*602 _183_
*603 _184_
*604 _185_
*605 _186_
*606 _187_
*607 _188_
*608 _189_
*609 _190_
*610 _191_
*611 _192_
*612 _193_
*613 _194_
*614 _195_
*615 _196_
*616 _197_
*617 _198_
*618 _199_
*619 _200_
*620 _201_
*621 _202_
*622 _203_
*623 _204_
*624 _205_
*625 _206_
*626 _207_
*627 _208_
*628 _209_
*629 _210_
*630 _211_
*631 _212_
*632 _213_
*633 _214_
*634 _215_
*635 _216_
*636 _217_
*637 _218_
*638 _219_
*639 _220_
*640 _221_
*641 _222_
*642 _223_
*643 _224_
*644 _225_
*645 _226_
*646 _227_
*647 _228_
*648 _229_
*649 _230_
*650 _231_
*651 _232_
*652 _233_
*653 _234_
*654 _235_
*655 _236_
*656 _237_
*657 _238_
*658 _239_
*659 _240_
*660 _241_
*661 _242_
*662 _243_
*663 _244_
*664 _245_
*665 _246_
*666 _247_
*667 _248_
*668 _249_
*669 _250_
*670 _251_
*671 _252_
*672 _253_
*673 _254_
*674 _255_
*675 _256_
*676 _257_
*677 _258_
*678 _259_
*679 _260_
*680 _261_
*681 _262_
*682 _263_
*683 _264_
*684 _265_
*685 mod\.regfile\.memory\[0\]\[0\]
*686 mod\.regfile\.memory\[0\]\[1\]
*687 mod\.regfile\.memory\[0\]\[2\]
*688 mod\.regfile\.memory\[0\]\[3\]
*689 mod\.regfile\.memory\[10\]\[0\]
*690 mod\.regfile\.memory\[10\]\[1\]
*691 mod\.regfile\.memory\[10\]\[2\]
*692 mod\.regfile\.memory\[10\]\[3\]
*693 mod\.regfile\.memory\[11\]\[0\]
*694 mod\.regfile\.memory\[11\]\[1\]
*695 mod\.regfile\.memory\[11\]\[2\]
*696 mod\.regfile\.memory\[11\]\[3\]
*697 mod\.regfile\.memory\[12\]\[0\]
*698 mod\.regfile\.memory\[12\]\[1\]
*699 mod\.regfile\.memory\[12\]\[2\]
*700 mod\.regfile\.memory\[12\]\[3\]
*701 mod\.regfile\.memory\[13\]\[0\]
*702 mod\.regfile\.memory\[13\]\[1\]
*703 mod\.regfile\.memory\[13\]\[2\]
*704 mod\.regfile\.memory\[13\]\[3\]
*705 mod\.regfile\.memory\[14\]\[0\]
*706 mod\.regfile\.memory\[14\]\[1\]
*707 mod\.regfile\.memory\[14\]\[2\]
*708 mod\.regfile\.memory\[14\]\[3\]
*709 mod\.regfile\.memory\[15\]\[0\]
*710 mod\.regfile\.memory\[15\]\[1\]
*711 mod\.regfile\.memory\[15\]\[2\]
*712 mod\.regfile\.memory\[15\]\[3\]
*713 mod\.regfile\.memory\[1\]\[0\]
*714 mod\.regfile\.memory\[1\]\[1\]
*715 mod\.regfile\.memory\[1\]\[2\]
*716 mod\.regfile\.memory\[1\]\[3\]
*717 mod\.regfile\.memory\[2\]\[0\]
*718 mod\.regfile\.memory\[2\]\[1\]
*719 mod\.regfile\.memory\[2\]\[2\]
*720 mod\.regfile\.memory\[2\]\[3\]
*721 mod\.regfile\.memory\[3\]\[0\]
*722 mod\.regfile\.memory\[3\]\[1\]
*723 mod\.regfile\.memory\[3\]\[2\]
*724 mod\.regfile\.memory\[3\]\[3\]
*725 mod\.regfile\.memory\[4\]\[0\]
*726 mod\.regfile\.memory\[4\]\[1\]
*727 mod\.regfile\.memory\[4\]\[2\]
*728 mod\.regfile\.memory\[4\]\[3\]
*729 mod\.regfile\.memory\[5\]\[0\]
*730 mod\.regfile\.memory\[5\]\[1\]
*731 mod\.regfile\.memory\[5\]\[2\]
*732 mod\.regfile\.memory\[5\]\[3\]
*733 mod\.regfile\.memory\[6\]\[0\]
*734 mod\.regfile\.memory\[6\]\[1\]
*735 mod\.regfile\.memory\[6\]\[2\]
*736 mod\.regfile\.memory\[6\]\[3\]
*737 mod\.regfile\.memory\[7\]\[0\]
*738 mod\.regfile\.memory\[7\]\[1\]
*739 mod\.regfile\.memory\[7\]\[2\]
*740 mod\.regfile\.memory\[7\]\[3\]
*741 mod\.regfile\.memory\[8\]\[0\]
*742 mod\.regfile\.memory\[8\]\[1\]
*743 mod\.regfile\.memory\[8\]\[2\]
*744 mod\.regfile\.memory\[8\]\[3\]
*745 mod\.regfile\.memory\[9\]\[0\]
*746 mod\.regfile\.memory\[9\]\[1\]
*747 mod\.regfile\.memory\[9\]\[2\]
*748 mod\.regfile\.memory\[9\]\[3\]
*749 net1
*750 net10
*751 net11
*752 net12
*753 net13
*754 net14
*755 net15
*756 net16
*757 net17
*758 net18
*759 net19
*760 net2
*761 net20
*762 net21
*763 net22
*764 net23
*765 net24
*766 net25
*767 net26
*768 net27
*769 net28
*770 net29
*771 net3
*772 net30
*773 net31
*774 net32
*775 net33
*776 net34
*777 net35
*778 net36
*779 net37
*780 net38
*781 net39
*782 net4
*783 net40
*784 net41
*785 net42
*786 net43
*787 net44
*788 net45
*789 net46
*790 net47
*791 net48
*792 net49
*793 net5
*794 net6
*795 net7
*796 net8
*797 net9
*798 ANTENNA__266__A1
*799 ANTENNA__266__A2
*800 ANTENNA__267__I0
*801 ANTENNA__267__I1
*802 ANTENNA__267__I2
*803 ANTENNA__267__I3
*804 ANTENNA__267__S0
*805 ANTENNA__267__S1
*806 ANTENNA__268__A1
*807 ANTENNA__268__A2
*808 ANTENNA__268__B
*809 ANTENNA__269__A1
*810 ANTENNA__269__A2
*811 ANTENNA__269__B1
*812 ANTENNA__269__B2
*813 ANTENNA__270__I0
*814 ANTENNA__270__I1
*815 ANTENNA__270__I2
*816 ANTENNA__270__I3
*817 ANTENNA__270__S0
*818 ANTENNA__270__S1
*819 ANTENNA__271__A1
*820 ANTENNA__271__A2
*821 ANTENNA__272__I0
*822 ANTENNA__272__I1
*823 ANTENNA__272__I2
*824 ANTENNA__272__I3
*825 ANTENNA__272__S0
*826 ANTENNA__272__S1
*827 ANTENNA__273__A1
*828 ANTENNA__273__A2
*829 ANTENNA__273__B
*830 ANTENNA__274__I0
*831 ANTENNA__274__I1
*832 ANTENNA__274__I2
*833 ANTENNA__274__I3
*834 ANTENNA__274__S0
*835 ANTENNA__274__S1
*836 ANTENNA__275__A1
*837 ANTENNA__276__I0
*838 ANTENNA__276__I1
*839 ANTENNA__276__I2
*840 ANTENNA__276__I3
*841 ANTENNA__276__S0
*842 ANTENNA__276__S1
*843 ANTENNA__277__A1
*844 ANTENNA__277__A2
*845 ANTENNA__277__B
*846 ANTENNA__278__A1
*847 ANTENNA__278__A2
*848 ANTENNA__278__B1
*849 ANTENNA__278__B2
*850 ANTENNA__279__A1
*851 ANTENNA__279__A2
*852 ANTENNA__280__I
*853 ANTENNA__281__I
*854 ANTENNA__282__I
*855 ANTENNA__283__A1
*856 ANTENNA__283__A2
*857 ANTENNA__283__A3
*858 ANTENNA__284__A1
*859 ANTENNA__284__A2
*860 ANTENNA__285__I0
*861 ANTENNA__285__I1
*862 ANTENNA__285__S
*863 ANTENNA__286__I
*864 ANTENNA__287__I
*865 ANTENNA__288__I0
*866 ANTENNA__288__I1
*867 ANTENNA__288__S
*868 ANTENNA__289__I
*869 ANTENNA__290__I
*870 ANTENNA__291__I0
*871 ANTENNA__291__I1
*872 ANTENNA__291__S
*873 ANTENNA__292__I
*874 ANTENNA__293__I
*875 ANTENNA__294__I0
*876 ANTENNA__294__I1
*877 ANTENNA__294__S
*878 ANTENNA__295__I
*879 ANTENNA__296__I
*880 ANTENNA__297__A1
*881 ANTENNA__297__A2
*882 ANTENNA__297__A3
*883 ANTENNA__298__A1
*884 ANTENNA__298__A2
*885 ANTENNA__299__I0
*886 ANTENNA__299__I1
*887 ANTENNA__299__S
*888 ANTENNA__300__I
*889 ANTENNA__301__I0
*890 ANTENNA__301__I1
*891 ANTENNA__301__S
*892 ANTENNA__302__I
*893 ANTENNA__303__I0
*894 ANTENNA__303__I1
*895 ANTENNA__303__S
*896 ANTENNA__304__I
*897 ANTENNA__305__I0
*898 ANTENNA__305__I1
*899 ANTENNA__305__S
*900 ANTENNA__306__I
*901 ANTENNA__307__I
*902 ANTENNA__308__A1
*903 ANTENNA__308__A2
*904 ANTENNA__309__A1
*905 ANTENNA__309__A2
*906 ANTENNA__309__A3
*907 ANTENNA__309__A4
*908 ANTENNA__310__I0
*909 ANTENNA__310__I1
*910 ANTENNA__310__S
*911 ANTENNA__311__I
*912 ANTENNA__312__I0
*913 ANTENNA__312__I1
*914 ANTENNA__312__S
*915 ANTENNA__313__I
*916 ANTENNA__314__I0
*917 ANTENNA__314__I1
*918 ANTENNA__314__S
*919 ANTENNA__315__I
*920 ANTENNA__316__I0
*921 ANTENNA__316__I1
*922 ANTENNA__316__S
*923 ANTENNA__317__I
*924 ANTENNA__318__I
*925 ANTENNA__319__A1
*926 ANTENNA__319__A2
*927 ANTENNA__320__A1
*928 ANTENNA__320__A2
*929 ANTENNA__321__A1
*930 ANTENNA__321__A2
*931 ANTENNA__321__A3
*932 ANTENNA__322__I0
*933 ANTENNA__322__I1
*934 ANTENNA__322__S
*935 ANTENNA__323__I
*936 ANTENNA__324__I0
*937 ANTENNA__324__I1
*938 ANTENNA__324__S
*939 ANTENNA__326__I0
*940 ANTENNA__326__I1
*941 ANTENNA__326__S
*942 ANTENNA__327__I
*943 ANTENNA__328__I0
*944 ANTENNA__328__I1
*945 ANTENNA__328__S
*946 ANTENNA__329__I
*947 ANTENNA__330__I
*948 ANTENNA__331__A1
*949 ANTENNA__331__A2
*950 ANTENNA__332__I0
*951 ANTENNA__332__I1
*952 ANTENNA__332__S
*953 ANTENNA__333__I
*954 ANTENNA__334__I
*955 ANTENNA__335__I0
*956 ANTENNA__335__I1
*957 ANTENNA__335__S
*958 ANTENNA__336__I
*959 ANTENNA__337__I
*960 ANTENNA__338__I0
*961 ANTENNA__338__I1
*962 ANTENNA__338__S
*963 ANTENNA__339__I
*964 ANTENNA__340__I
*965 ANTENNA__341__I0
*966 ANTENNA__341__I1
*967 ANTENNA__341__S
*968 ANTENNA__342__I
*969 ANTENNA__343__I
*970 ANTENNA__344__A1
*971 ANTENNA__344__A2
*972 ANTENNA__344__A3
*973 ANTENNA__345__I0
*974 ANTENNA__345__I1
*975 ANTENNA__345__S
*976 ANTENNA__346__I
*977 ANTENNA__347__I
*978 ANTENNA__348__I0
*979 ANTENNA__348__I1
*980 ANTENNA__348__S
*981 ANTENNA__349__I
*982 ANTENNA__350__I
*983 ANTENNA__351__I0
*984 ANTENNA__351__I1
*985 ANTENNA__351__S
*986 ANTENNA__352__I
*987 ANTENNA__353__I
*988 ANTENNA__354__I0
*989 ANTENNA__354__I1
*990 ANTENNA__354__S
*991 ANTENNA__355__I
*992 ANTENNA__356__I
*993 ANTENNA__357__A1
*994 ANTENNA__357__A2
*995 ANTENNA__357__A3
*996 ANTENNA__357__A4
*997 ANTENNA__358__I
*998 ANTENNA__359__I0
*999 ANTENNA__359__I1
*1000 ANTENNA__359__S
*1001 ANTENNA__360__I
*1002 ANTENNA__361__I
*1003 ANTENNA__362__I0
*1004 ANTENNA__362__I1
*1005 ANTENNA__362__S
*1006 ANTENNA__363__I
*1007 ANTENNA__364__I
*1008 ANTENNA__365__I0
*1009 ANTENNA__365__I1
*1010 ANTENNA__365__S
*1011 ANTENNA__366__I
*1012 ANTENNA__367__I
*1013 ANTENNA__368__I0
*1014 ANTENNA__368__I1
*1015 ANTENNA__368__S
*1016 ANTENNA__370__A1
*1017 ANTENNA__370__A2
*1018 ANTENNA__371__A1
*1019 ANTENNA__371__A2
*1020 ANTENNA__371__A3
*1021 ANTENNA__372__I0
*1022 ANTENNA__372__I1
*1023 ANTENNA__372__S
*1024 ANTENNA__373__I
*1025 ANTENNA__374__I0
*1026 ANTENNA__374__I1
*1027 ANTENNA__374__S
*1028 ANTENNA__375__I
*1029 ANTENNA__376__I0
*1030 ANTENNA__376__I1
*1031 ANTENNA__376__S
*1032 ANTENNA__377__I
*1033 ANTENNA__378__I0
*1034 ANTENNA__378__I1
*1035 ANTENNA__378__S
*1036 ANTENNA__379__I
*1037 ANTENNA__380__A1
*1038 ANTENNA__380__A2
*1039 ANTENNA__381__I0
*1040 ANTENNA__381__I1
*1041 ANTENNA__381__S
*1042 ANTENNA__383__I0
*1043 ANTENNA__383__I1
*1044 ANTENNA__383__S
*1045 ANTENNA__385__I0
*1046 ANTENNA__385__I1
*1047 ANTENNA__385__S
*1048 ANTENNA__386__I
*1049 ANTENNA__387__I0
*1050 ANTENNA__387__I1
*1051 ANTENNA__387__S
*1052 ANTENNA__388__I
*1053 ANTENNA__389__A1
*1054 ANTENNA__389__A2
*1055 ANTENNA__390__I0
*1056 ANTENNA__390__I1
*1057 ANTENNA__390__S
*1058 ANTENNA__391__I
*1059 ANTENNA__392__I0
*1060 ANTENNA__392__I1
*1061 ANTENNA__392__S
*1062 ANTENNA__393__I
*1063 ANTENNA__394__I0
*1064 ANTENNA__394__I1
*1065 ANTENNA__394__S
*1066 ANTENNA__395__I
*1067 ANTENNA__396__I0
*1068 ANTENNA__396__I1
*1069 ANTENNA__396__S
*1070 ANTENNA__397__I
*1071 ANTENNA__398__A1
*1072 ANTENNA__398__A2
*1073 ANTENNA__398__A3
*1074 ANTENNA__399__I0
*1075 ANTENNA__399__I1
*1076 ANTENNA__399__S
*1077 ANTENNA__401__I0
*1078 ANTENNA__401__I1
*1079 ANTENNA__401__S
*1080 ANTENNA__402__I
*1081 ANTENNA__403__I0
*1082 ANTENNA__403__I1
*1083 ANTENNA__403__S
*1084 ANTENNA__404__I
*1085 ANTENNA__405__I0
*1086 ANTENNA__405__I1
*1087 ANTENNA__405__S
*1088 ANTENNA__406__I
*1089 ANTENNA__407__A1
*1090 ANTENNA__407__A2
*1091 ANTENNA__408__I0
*1092 ANTENNA__408__I1
*1093 ANTENNA__408__S
*1094 ANTENNA__410__I0
*1095 ANTENNA__410__I1
*1096 ANTENNA__410__S
*1097 ANTENNA__411__I
*1098 ANTENNA__412__I0
*1099 ANTENNA__412__I1
*1100 ANTENNA__412__S
*1101 ANTENNA__414__I0
*1102 ANTENNA__414__I1
*1103 ANTENNA__414__S
*1104 ANTENNA__416__A1
*1105 ANTENNA__416__A2
*1106 ANTENNA__417__A1
*1107 ANTENNA__417__A2
*1108 ANTENNA__417__A3
*1109 ANTENNA__418__I0
*1110 ANTENNA__418__I1
*1111 ANTENNA__418__S
*1112 ANTENNA__419__I
*1113 ANTENNA__420__I0
*1114 ANTENNA__420__I1
*1115 ANTENNA__420__S
*1116 ANTENNA__421__I
*1117 ANTENNA__422__I0
*1118 ANTENNA__422__I1
*1119 ANTENNA__422__S
*1120 ANTENNA__423__I
*1121 ANTENNA__424__I0
*1122 ANTENNA__424__I1
*1123 ANTENNA__424__S
*1124 ANTENNA__425__I
*1125 ANTENNA__426__A1
*1126 ANTENNA__426__A2
*1127 ANTENNA__427__I0
*1128 ANTENNA__427__I1
*1129 ANTENNA__427__S
*1130 ANTENNA__428__I
*1131 ANTENNA__429__I0
*1132 ANTENNA__429__I1
*1133 ANTENNA__429__S
*1134 ANTENNA__430__I
*1135 ANTENNA__431__I0
*1136 ANTENNA__431__I1
*1137 ANTENNA__431__S
*1138 ANTENNA__433__I0
*1139 ANTENNA__433__I1
*1140 ANTENNA__433__S
*1141 ANTENNA__434__I
*1142 ANTENNA__435__A1
*1143 ANTENNA__435__A2
*1144 ANTENNA__435__A3
*1145 ANTENNA__436__I0
*1146 ANTENNA__436__I1
*1147 ANTENNA__436__S
*1148 ANTENNA__438__I0
*1149 ANTENNA__438__I1
*1150 ANTENNA__438__S
*1151 ANTENNA__439__I
*1152 ANTENNA__440__I0
*1153 ANTENNA__440__I1
*1154 ANTENNA__440__S
*1155 ANTENNA__441__I
*1156 ANTENNA__442__I0
*1157 ANTENNA__442__I1
*1158 ANTENNA__442__S
*1159 ANTENNA__443__I
*1160 ANTENNA__444__A1
*1161 ANTENNA__444__A2
*1162 ANTENNA__445__I0
*1163 ANTENNA__445__I1
*1164 ANTENNA__445__S
*1165 ANTENNA__446__I
*1166 ANTENNA__447__I0
*1167 ANTENNA__447__I1
*1168 ANTENNA__447__S
*1169 ANTENNA__448__I
*1170 ANTENNA__449__I0
*1171 ANTENNA__449__I1
*1172 ANTENNA__449__S
*1173 ANTENNA__450__I
*1174 ANTENNA__451__I0
*1175 ANTENNA__451__I1
*1176 ANTENNA__451__S
*1177 ANTENNA__452__I
*1178 ANTENNA__453__I
*1179 ANTENNA__454__A1
*1180 ANTENNA__454__A2
*1181 ANTENNA__455__I
*1182 ANTENNA__456__I
*1183 ANTENNA__457__I
*1184 ANTENNA__458__I
*1185 ANTENNA__459__I
*1186 ANTENNA__460__I0
*1187 ANTENNA__460__I1
*1188 ANTENNA__460__I2
*1189 ANTENNA__460__I3
*1190 ANTENNA__460__S0
*1191 ANTENNA__460__S1
*1192 ANTENNA__461__I
*1193 ANTENNA__462__A1
*1194 ANTENNA__462__A2
*1195 ANTENNA__463__I
*1196 ANTENNA__464__I
*1197 ANTENNA__465__I
*1198 ANTENNA__466__I0
*1199 ANTENNA__466__I1
*1200 ANTENNA__466__I2
*1201 ANTENNA__466__I3
*1202 ANTENNA__466__S0
*1203 ANTENNA__466__S1
*1204 ANTENNA__467__A1
*1205 ANTENNA__467__A2
*1206 ANTENNA__467__B1
*1207 ANTENNA__467__B2
*1208 ANTENNA__468__A1
*1209 ANTENNA__468__A2
*1210 ANTENNA__469__I
*1211 ANTENNA__470__I
*1212 ANTENNA__471__I
*1213 ANTENNA__472__I0
*1214 ANTENNA__472__I1
*1215 ANTENNA__472__I2
*1216 ANTENNA__472__I3
*1217 ANTENNA__472__S0
*1218 ANTENNA__472__S1
*1219 ANTENNA__473__I
*1220 ANTENNA__474__I
*1221 ANTENNA__475__A1
*1222 ANTENNA__475__A2
*1223 ANTENNA__476__I
*1224 ANTENNA__477__I0
*1225 ANTENNA__477__I1
*1226 ANTENNA__477__I2
*1227 ANTENNA__477__I3
*1228 ANTENNA__477__S0
*1229 ANTENNA__477__S1
*1230 ANTENNA__478__A1
*1231 ANTENNA__478__B1
*1232 ANTENNA__478__B2
*1233 ANTENNA__479__A1
*1234 ANTENNA__479__A2
*1235 ANTENNA__480__I0
*1236 ANTENNA__480__I1
*1237 ANTENNA__480__I2
*1238 ANTENNA__480__I3
*1239 ANTENNA__480__S0
*1240 ANTENNA__480__S1
*1241 ANTENNA__481__I0
*1242 ANTENNA__481__I1
*1243 ANTENNA__481__I2
*1244 ANTENNA__481__I3
*1245 ANTENNA__481__S0
*1246 ANTENNA__481__S1
*1247 ANTENNA__482__A1
*1248 ANTENNA__482__A2
*1249 ANTENNA__482__B1
*1250 ANTENNA__482__B2
*1251 ANTENNA__483__I0
*1252 ANTENNA__483__I1
*1253 ANTENNA__483__I2
*1254 ANTENNA__483__I3
*1255 ANTENNA__483__S0
*1256 ANTENNA__483__S1
*1257 ANTENNA__484__I
*1258 ANTENNA__485__I
*1259 ANTENNA__486__I0
*1260 ANTENNA__486__I1
*1261 ANTENNA__486__I2
*1262 ANTENNA__486__I3
*1263 ANTENNA__486__S0
*1264 ANTENNA__486__S1
*1265 ANTENNA__487__A1
*1266 ANTENNA__487__B1
*1267 ANTENNA__487__B2
*1268 ANTENNA__488__A1
*1269 ANTENNA__488__A2
*1270 ANTENNA__489__I0
*1271 ANTENNA__489__I1
*1272 ANTENNA__489__I2
*1273 ANTENNA__489__I3
*1274 ANTENNA__489__S0
*1275 ANTENNA__489__S1
*1276 ANTENNA__490__I0
*1277 ANTENNA__490__I1
*1278 ANTENNA__490__I2
*1279 ANTENNA__490__I3
*1280 ANTENNA__490__S0
*1281 ANTENNA__490__S1
*1282 ANTENNA__491__A1
*1283 ANTENNA__491__A2
*1284 ANTENNA__491__B1
*1285 ANTENNA__491__B2
*1286 ANTENNA__492__I0
*1287 ANTENNA__492__I1
*1288 ANTENNA__492__I2
*1289 ANTENNA__492__I3
*1290 ANTENNA__492__S0
*1291 ANTENNA__492__S1
*1292 ANTENNA__493__I0
*1293 ANTENNA__493__I1
*1294 ANTENNA__493__I2
*1295 ANTENNA__493__I3
*1296 ANTENNA__493__S0
*1297 ANTENNA__493__S1
*1298 ANTENNA__494__A1
*1299 ANTENNA__494__A2
*1300 ANTENNA__494__B1
*1301 ANTENNA__494__B2
*1302 ANTENNA__495__A1
*1303 ANTENNA__495__A2
*1304 ANTENNA__496__I0
*1305 ANTENNA__496__I1
*1306 ANTENNA__496__I2
*1307 ANTENNA__496__I3
*1308 ANTENNA__496__S0
*1309 ANTENNA__496__S1
*1310 ANTENNA__497__I0
*1311 ANTENNA__497__I1
*1312 ANTENNA__497__I2
*1313 ANTENNA__497__I3
*1314 ANTENNA__497__S0
*1315 ANTENNA__497__S1
*1316 ANTENNA__498__A1
*1317 ANTENNA__498__A2
*1318 ANTENNA__498__B1
*1319 ANTENNA__498__B2
*1320 ANTENNA__499__I0
*1321 ANTENNA__499__I1
*1322 ANTENNA__499__I2
*1323 ANTENNA__499__I3
*1324 ANTENNA__499__S0
*1325 ANTENNA__499__S1
*1326 ANTENNA__500__I0
*1327 ANTENNA__500__I1
*1328 ANTENNA__500__I2
*1329 ANTENNA__500__I3
*1330 ANTENNA__500__S0
*1331 ANTENNA__500__S1
*1332 ANTENNA__501__A1
*1333 ANTENNA__501__A2
*1334 ANTENNA__501__B1
*1335 ANTENNA__501__B2
*1336 ANTENNA__502__A1
*1337 ANTENNA__502__A2
*1338 ANTENNA__503__I
*1339 ANTENNA__504__I
*1340 ANTENNA__505__I
*1341 ANTENNA__506__I
*1342 ANTENNA__507__I0
*1343 ANTENNA__507__I1
*1344 ANTENNA__507__I2
*1345 ANTENNA__507__I3
*1346 ANTENNA__507__S0
*1347 ANTENNA__507__S1
*1348 ANTENNA__508__A1
*1349 ANTENNA__509__I
*1350 ANTENNA__510__I
*1351 ANTENNA__511__I
*1352 ANTENNA__512__I0
*1353 ANTENNA__512__I1
*1354 ANTENNA__512__I2
*1355 ANTENNA__512__I3
*1356 ANTENNA__512__S0
*1357 ANTENNA__512__S1
*1358 ANTENNA__513__I
*1359 ANTENNA__514__A1
*1360 ANTENNA__514__A2
*1361 ANTENNA__514__B
*1362 ANTENNA__515__I
*1363 ANTENNA__516__I
*1364 ANTENNA__517__I
*1365 ANTENNA__518__I0
*1366 ANTENNA__518__I1
*1367 ANTENNA__518__I2
*1368 ANTENNA__518__I3
*1369 ANTENNA__518__S0
*1370 ANTENNA__518__S1
*1371 ANTENNA__519__A1
*1372 ANTENNA__519__A2
*1373 ANTENNA__520__I
*1374 ANTENNA__521__I
*1375 ANTENNA__522__I
*1376 ANTENNA__523__I0
*1377 ANTENNA__523__I1
*1378 ANTENNA__523__I2
*1379 ANTENNA__523__I3
*1380 ANTENNA__523__S0
*1381 ANTENNA__523__S1
*1382 ANTENNA__524__I
*1383 ANTENNA__525__A1
*1384 ANTENNA__525__A2
*1385 ANTENNA__525__B
*1386 ANTENNA__526__A1
*1387 ANTENNA__526__A2
*1388 ANTENNA__526__B1
*1389 ANTENNA__526__B2
*1390 ANTENNA__527__I0
*1391 ANTENNA__527__I1
*1392 ANTENNA__527__I2
*1393 ANTENNA__527__I3
*1394 ANTENNA__527__S0
*1395 ANTENNA__527__S1
*1396 ANTENNA__528__A1
*1397 ANTENNA__528__A2
*1398 ANTENNA__529__I0
*1399 ANTENNA__529__I1
*1400 ANTENNA__529__I2
*1401 ANTENNA__529__I3
*1402 ANTENNA__529__S0
*1403 ANTENNA__529__S1
*1404 ANTENNA__530__A1
*1405 ANTENNA__530__A2
*1406 ANTENNA__530__B
*1407 ANTENNA__531__I0
*1408 ANTENNA__531__I1
*1409 ANTENNA__531__I2
*1410 ANTENNA__531__I3
*1411 ANTENNA__531__S0
*1412 ANTENNA__531__S1
*1413 ANTENNA__532__A1
*1414 ANTENNA__532__A2
*1415 ANTENNA__533__I0
*1416 ANTENNA__533__I1
*1417 ANTENNA__533__I2
*1418 ANTENNA__533__I3
*1419 ANTENNA__533__S0
*1420 ANTENNA__533__S1
*1421 ANTENNA__534__A1
*1422 ANTENNA__534__A2
*1423 ANTENNA__534__B
*1424 ANTENNA__535__A1
*1425 ANTENNA__535__A2
*1426 ANTENNA__535__B1
*1427 ANTENNA__535__B2
*1428 ANTENNA__536__I0
*1429 ANTENNA__536__I1
*1430 ANTENNA__536__I2
*1431 ANTENNA__536__I3
*1432 ANTENNA__536__S0
*1433 ANTENNA__536__S1
*1434 ANTENNA__537__A1
*1435 ANTENNA__537__A2
*1436 ANTENNA__538__I0
*1437 ANTENNA__538__I1
*1438 ANTENNA__538__I2
*1439 ANTENNA__538__I3
*1440 ANTENNA__538__S0
*1441 ANTENNA__538__S1
*1442 ANTENNA__539__A1
*1443 ANTENNA__539__A2
*1444 ANTENNA__539__B
*1445 ANTENNA__540__I0
*1446 ANTENNA__540__I1
*1447 ANTENNA__540__I2
*1448 ANTENNA__540__I3
*1449 ANTENNA__540__S0
*1450 ANTENNA__540__S1
*1451 ANTENNA__541__CLK
*1452 ANTENNA__541__D
*1453 ANTENNA__542__CLK
*1454 ANTENNA__542__D
*1455 ANTENNA__543__CLK
*1456 ANTENNA__543__D
*1457 ANTENNA__544__CLK
*1458 ANTENNA__544__D
*1459 ANTENNA__545__CLK
*1460 ANTENNA__545__D
*1461 ANTENNA__546__CLK
*1462 ANTENNA__546__D
*1463 ANTENNA__547__CLK
*1464 ANTENNA__547__D
*1465 ANTENNA__548__CLK
*1466 ANTENNA__549__CLK
*1467 ANTENNA__549__D
*1468 ANTENNA__550__CLK
*1469 ANTENNA__550__D
*1470 ANTENNA__551__CLK
*1471 ANTENNA__551__D
*1472 ANTENNA__552__CLK
*1473 ANTENNA__553__CLK
*1474 ANTENNA__553__D
*1475 ANTENNA__554__CLK
*1476 ANTENNA__554__D
*1477 ANTENNA__555__CLK
*1478 ANTENNA__555__D
*1479 ANTENNA__556__CLK
*1480 ANTENNA__557__CLK
*1481 ANTENNA__558__CLK
*1482 ANTENNA__558__D
*1483 ANTENNA__559__CLK
*1484 ANTENNA__559__D
*1485 ANTENNA__560__CLK
*1486 ANTENNA__560__D
*1487 ANTENNA__561__CLK
*1488 ANTENNA__562__CLK
*1489 ANTENNA__562__D
*1490 ANTENNA__563__CLK
*1491 ANTENNA__563__D
*1492 ANTENNA__564__CLK
*1493 ANTENNA__564__D
*1494 ANTENNA__565__CLK
*1495 ANTENNA__566__CLK
*1496 ANTENNA__566__D
*1497 ANTENNA__567__CLK
*1498 ANTENNA__567__D
*1499 ANTENNA__568__CLK
*1500 ANTENNA__568__D
*1501 ANTENNA__569__CLK
*1502 ANTENNA__569__D
*1503 ANTENNA__570__CLK
*1504 ANTENNA__570__D
*1505 ANTENNA__571__CLK
*1506 ANTENNA__571__D
*1507 ANTENNA__572__CLK
*1508 ANTENNA__573__CLK
*1509 ANTENNA__573__D
*1510 ANTENNA__574__CLK
*1511 ANTENNA__575__CLK
*1512 ANTENNA__576__CLK
*1513 ANTENNA__577__CLK
*1514 ANTENNA__577__D
*1515 ANTENNA__578__CLK
*1516 ANTENNA__579__CLK
*1517 ANTENNA__579__D
*1518 ANTENNA__580__CLK
*1519 ANTENNA__580__D
*1520 ANTENNA__581__CLK
*1521 ANTENNA__581__D
*1522 ANTENNA__582__CLK
*1523 ANTENNA__582__D
*1524 ANTENNA__583__CLK
*1525 ANTENNA__583__D
*1526 ANTENNA__584__CLK
*1527 ANTENNA__584__D
*1528 ANTENNA__585__CLK
*1529 ANTENNA__585__D
*1530 ANTENNA__586__CLK
*1531 ANTENNA__586__D
*1532 ANTENNA__587__CLK
*1533 ANTENNA__587__D
*1534 ANTENNA__588__CLK
*1535 ANTENNA__589__CLK
*1536 ANTENNA__589__D
*1537 ANTENNA__590__CLK
*1538 ANTENNA__590__D
*1539 ANTENNA__591__CLK
*1540 ANTENNA__591__D
*1541 ANTENNA__592__CLK
*1542 ANTENNA__593__CLK
*1543 ANTENNA__593__D
*1544 ANTENNA__594__CLK
*1545 ANTENNA__594__D
*1546 ANTENNA__595__CLK
*1547 ANTENNA__596__CLK
*1548 ANTENNA__596__D
*1549 ANTENNA__597__CLK
*1550 ANTENNA__597__D
*1551 ANTENNA__598__CLK
*1552 ANTENNA__598__D
*1553 ANTENNA__599__CLK
*1554 ANTENNA__599__D
*1555 ANTENNA__600__CLK
*1556 ANTENNA__600__D
*1557 ANTENNA__601__CLK
*1558 ANTENNA__601__D
*1559 ANTENNA__602__CLK
*1560 ANTENNA__602__D
*1561 ANTENNA__603__CLK
*1562 ANTENNA__603__D
*1563 ANTENNA__604__CLK
*1564 ANTENNA__604__D
*1565 ANTENNA_fanout29_I
*1566 ANTENNA_fanout30_I
*1567 ANTENNA_fanout32_I
*1568 ANTENNA_fanout33_I
*1569 ANTENNA_fanout34_I
*1570 ANTENNA_fanout35_I
*1571 ANTENNA_fanout36_I
*1572 ANTENNA_fanout37_I
*1573 ANTENNA_fanout38_I
*1574 ANTENNA_fanout39_I
*1575 ANTENNA_fanout40_I
*1576 ANTENNA_fanout41_I
*1577 ANTENNA_fanout42_I
*1578 ANTENNA_fanout43_I
*1579 ANTENNA_fanout44_I