*SPEF "ieee 1481-1999"
*DESIGN "tiny_user_project"
*DATE "11:11:11 Fri 11 11, 1111"
*VENDOR "OpenRCX"
*PROGRAM "Parallel Extraction"
*VERSION "1.0"
*DESIGN_FLOW "NAME_SCOPE LOCAL" "PIN_CAP NONE"
*DIVIDER /
*DELIMITER :
*BUS_DELIMITER []
*T_UNIT 1 NS
*C_UNIT 1 PF
*R_UNIT 1 OHM
*L_UNIT 1 HENRY

*NAME_MAP
*1 io_in[0]
*2 io_in[10]
*3 io_in[11]
*4 io_in[12]
*5 io_in[13]
*6 io_in[14]
*7 io_in[15]
*8 io_in[16]
*9 io_in[17]
*10 io_in[18]
*11 io_in[19]
*12 io_in[1]
*13 io_in[20]
*14 io_in[21]
*15 io_in[22]
*16 io_in[23]
*17 io_in[24]
*18 io_in[25]
*19 io_in[26]
*20 io_in[27]
*21 io_in[28]
*22 io_in[29]
*23 io_in[2]
*24 io_in[30]
*25 io_in[31]
*26 io_in[32]
*27 io_in[33]
*28 io_in[34]
*29 io_in[35]
*30 io_in[36]
*31 io_in[37]
*32 io_in[3]
*33 io_in[4]
*34 io_in[5]
*35 io_in[6]
*36 io_in[7]
*37 io_in[8]
*38 io_in[9]
*39 net99
*40 net109
*41 net110
*42 net111
*43 net112
*44 net113
*45 net114
*46 net115
*47 net116
*48 net117
*49 net118
*50 net100
*51 net119
*52 net120
*53 net121
*54 net122
*55 net123
*56 net124
*57 net125
*58 net126
*59 net127
*60 net128
*61 net101
*62 net129
*63 net130
*64 net131
*65 net132
*66 net133
*67 net134
*68 net135
*69 net136
*70 net102
*71 net103
*72 net104
*73 net105
*74 net106
*75 net107
*76 net108
*77 net62
*78 net72
*79 net73
*80 net74
*81 net75
*82 net76
*83 net77
*84 net78
*85 net79
*86 net80
*87 net81
*88 net63
*89 net82
*90 net83
*91 net84
*92 io_out[23]
*93 net85
*94 net86
*95 net87
*96 net88
*97 net89
*98 net90
*99 net64
*100 net91
*101 net92
*102 net93
*103 net94
*104 net95
*105 net96
*106 net97
*107 net98
*108 net65
*109 net66
*110 net67
*111 net68
*112 net69
*113 net70
*114 net71
*115 la_data_in[0]
*116 la_data_in[10]
*117 la_data_in[11]
*118 la_data_in[12]
*119 la_data_in[13]
*120 la_data_in[14]
*121 la_data_in[15]
*122 la_data_in[16]
*123 la_data_in[17]
*124 la_data_in[18]
*125 la_data_in[19]
*126 la_data_in[1]
*127 la_data_in[20]
*128 la_data_in[21]
*129 la_data_in[22]
*130 la_data_in[23]
*131 la_data_in[24]
*132 la_data_in[25]
*133 la_data_in[26]
*134 la_data_in[27]
*135 la_data_in[28]
*136 la_data_in[29]
*137 la_data_in[2]
*138 la_data_in[30]
*139 la_data_in[31]
*140 la_data_in[32]
*141 la_data_in[33]
*142 la_data_in[34]
*143 la_data_in[35]
*144 la_data_in[36]
*145 la_data_in[37]
*146 la_data_in[38]
*147 la_data_in[39]
*148 la_data_in[3]
*149 la_data_in[40]
*150 la_data_in[41]
*151 la_data_in[42]
*152 la_data_in[43]
*153 la_data_in[44]
*154 la_data_in[45]
*155 la_data_in[46]
*156 la_data_in[47]
*157 la_data_in[48]
*158 la_data_in[49]
*159 la_data_in[4]
*160 la_data_in[50]
*161 la_data_in[51]
*162 la_data_in[52]
*163 la_data_in[53]
*164 la_data_in[54]
*165 la_data_in[55]
*166 la_data_in[56]
*167 la_data_in[57]
*168 la_data_in[58]
*169 la_data_in[59]
*170 la_data_in[5]
*171 la_data_in[60]
*172 la_data_in[61]
*173 la_data_in[62]
*174 la_data_in[63]
*175 la_data_in[6]
*176 la_data_in[7]
*177 la_data_in[8]
*178 la_data_in[9]
*179 net173
*180 net8
*181 net9
*182 net10
*183 net11
*184 net12
*185 net13
*186 net14
*187 net15
*188 net16
*189 net17
*190 net174
*191 net18
*192 net19
*193 net20
*194 net21
*195 net22
*196 net23
*197 net24
*198 net25
*199 net26
*200 net27
*201 net175
*202 net28
*203 net29
*204 net30
*205 net31
*206 net32
*207 net33
*208 net34
*209 net35
*210 net36
*211 net37
*212 net176
*213 net38
*214 net39
*215 net40
*216 net41
*217 net42
*218 net43
*219 net44
*220 net45
*221 net46
*222 net47
*223 net177
*224 net48
*225 net49
*226 net50
*227 net51
*228 net52
*229 net53
*230 net54
*231 net55
*232 net56
*233 net57
*234 net178
*235 net58
*236 net59
*237 net60
*238 net61
*239 net4
*240 net5
*241 net6
*242 net7
*243 la_oenb[0]
*244 la_oenb[10]
*245 la_oenb[11]
*246 la_oenb[12]
*247 la_oenb[13]
*248 la_oenb[14]
*249 la_oenb[15]
*250 la_oenb[16]
*251 la_oenb[17]
*252 la_oenb[18]
*253 la_oenb[19]
*254 la_oenb[1]
*255 la_oenb[20]
*256 la_oenb[21]
*257 la_oenb[22]
*258 la_oenb[23]
*259 la_oenb[24]
*260 la_oenb[25]
*261 la_oenb[26]
*262 la_oenb[27]
*263 la_oenb[28]
*264 la_oenb[29]
*265 la_oenb[2]
*266 la_oenb[30]
*267 la_oenb[31]
*268 la_oenb[32]
*269 la_oenb[33]
*270 la_oenb[34]
*271 la_oenb[35]
*272 la_oenb[36]
*273 la_oenb[37]
*274 la_oenb[38]
*275 la_oenb[39]
*276 la_oenb[3]
*277 la_oenb[40]
*278 la_oenb[41]
*279 la_oenb[42]
*280 la_oenb[43]
*281 la_oenb[44]
*282 la_oenb[45]
*283 la_oenb[46]
*284 la_oenb[47]
*285 la_oenb[48]
*286 la_oenb[49]
*287 la_oenb[4]
*288 la_oenb[50]
*289 la_oenb[51]
*290 la_oenb[52]
*291 la_oenb[53]
*292 la_oenb[54]
*293 la_oenb[55]
*294 la_oenb[56]
*295 la_oenb[57]
*296 la_oenb[58]
*297 la_oenb[59]
*298 la_oenb[5]
*299 la_oenb[60]
*300 la_oenb[61]
*301 la_oenb[62]
*302 la_oenb[63]
*303 la_oenb[6]
*304 la_oenb[7]
*305 la_oenb[8]
*306 la_oenb[9]
*307 user_clock2
*308 net137
*309 net138
*310 net139
*313 wb_clk_i
*314 wb_rst_i
*315 net140
*316 wbs_adr_i[0]
*317 wbs_adr_i[10]
*318 wbs_adr_i[11]
*319 wbs_adr_i[12]
*320 wbs_adr_i[13]
*321 wbs_adr_i[14]
*322 wbs_adr_i[15]
*323 wbs_adr_i[16]
*324 wbs_adr_i[17]
*325 wbs_adr_i[18]
*326 wbs_adr_i[19]
*327 wbs_adr_i[1]
*328 wbs_adr_i[20]
*329 wbs_adr_i[21]
*330 wbs_adr_i[22]
*331 wbs_adr_i[23]
*332 wbs_adr_i[24]
*333 wbs_adr_i[25]
*334 wbs_adr_i[26]
*335 wbs_adr_i[27]
*336 wbs_adr_i[28]
*337 wbs_adr_i[29]
*338 wbs_adr_i[2]
*339 wbs_adr_i[30]
*340 wbs_adr_i[31]
*341 wbs_adr_i[3]
*342 wbs_adr_i[4]
*343 wbs_adr_i[5]
*344 wbs_adr_i[6]
*345 wbs_adr_i[7]
*346 wbs_adr_i[8]
*347 wbs_adr_i[9]
*348 wbs_cyc_i
*349 wbs_dat_i[0]
*350 wbs_dat_i[10]
*351 wbs_dat_i[11]
*352 wbs_dat_i[12]
*353 wbs_dat_i[13]
*354 wbs_dat_i[14]
*355 wbs_dat_i[15]
*356 wbs_dat_i[16]
*357 wbs_dat_i[17]
*358 wbs_dat_i[18]
*359 wbs_dat_i[19]
*360 wbs_dat_i[1]
*361 wbs_dat_i[20]
*362 wbs_dat_i[21]
*363 wbs_dat_i[22]
*364 wbs_dat_i[23]
*365 wbs_dat_i[24]
*366 wbs_dat_i[25]
*367 wbs_dat_i[26]
*368 wbs_dat_i[27]
*369 wbs_dat_i[28]
*370 wbs_dat_i[29]
*371 wbs_dat_i[2]
*372 wbs_dat_i[30]
*373 wbs_dat_i[31]
*374 wbs_dat_i[3]
*375 wbs_dat_i[4]
*376 wbs_dat_i[5]
*377 wbs_dat_i[6]
*378 wbs_dat_i[7]
*379 wbs_dat_i[8]
*380 wbs_dat_i[9]
*381 net141
*382 net151
*383 net152
*384 net153
*385 net154
*386 net155
*387 net156
*388 net157
*389 net158
*390 net159
*391 net160
*392 net142
*393 net161
*394 net162
*395 net163
*396 net164
*397 net165
*398 net166
*399 net167
*400 net168
*401 net169
*402 net170
*403 net143
*404 net171
*405 net172
*406 net144
*407 net145
*408 net146
*409 net147
*410 net148
*411 net149
*412 net150
*413 wbs_sel_i[0]
*414 wbs_sel_i[1]
*415 wbs_sel_i[2]
*416 wbs_sel_i[3]
*417 wbs_stb_i
*418 wbs_we_i
*419 _000_
*420 net1
*421 net2
*422 net3
*423 ANTENNA__001__A1
*424 ANTENNA_input1_I
*425 ANTENNA_input2_I
*426 FILLER_0_101
*427 FILLER_0_1011
*428 FILLER_0_1017
*429 FILLER_0_1025
*430 FILLER_0_1037
*431 FILLER_0_1039
*432 FILLER_0_1044
*433 FILLER_0_107
*434 FILLER_0_11
*435 FILLER_0_115
*436 FILLER_0_119
*437 FILLER_0_125
*438 FILLER_0_133
*439 FILLER_0_137
*440 FILLER_0_139
*441 FILLER_0_142
*442 FILLER_0_174
*443 FILLER_0_177
*444 FILLER_0_2
*445 FILLER_0_209
*446 FILLER_0_212
*447 FILLER_0_228
*448 FILLER_0_233
*449 FILLER_0_237
*450 FILLER_0_239
*451 FILLER_0_244
*452 FILLER_0_247
*453 FILLER_0_251
*454 FILLER_0_257
*455 FILLER_0_263
*456 FILLER_0_27
*457 FILLER_0_279
*458 FILLER_0_282
*459 FILLER_0_287
*460 FILLER_0_299
*461 FILLER_0_317
*462 FILLER_0_323
*463 FILLER_0_329
*464 FILLER_0_345
*465 FILLER_0_349
*466 FILLER_0_352
*467 FILLER_0_368
*468 FILLER_0_37
*469 FILLER_0_372
*470 FILLER_0_377
*471 FILLER_0_387
*472 FILLER_0_395
*473 FILLER_0_411
*474 FILLER_0_419
*475 FILLER_0_422
*476 FILLER_0_426
*477 FILLER_0_431
*478 FILLER_0_447
*479 FILLER_0_449
*480 FILLER_0_454
*481 FILLER_0_457
*482 FILLER_0_462
*483 FILLER_0_466
*484 FILLER_0_468
*485 FILLER_0_473
*486 FILLER_0_485
*487 FILLER_0_489
*488 FILLER_0_492
*489 FILLER_0_508
*490 FILLER_0_516
*491 FILLER_0_521
*492 FILLER_0_527
*493 FILLER_0_53
*494 FILLER_0_543
*495 FILLER_0_551
*496 FILLER_0_559
*497 FILLER_0_562
*498 FILLER_0_59
*499 FILLER_0_594
*500 FILLER_0_597
*501 FILLER_0_6
*502 FILLER_0_602
*503 FILLER_0_608
*504 FILLER_0_612
*505 FILLER_0_617
*506 FILLER_0_625
*507 FILLER_0_629
*508 FILLER_0_632
*509 FILLER_0_65
*510 FILLER_0_664
*511 FILLER_0_667
*512 FILLER_0_672
*513 FILLER_0_676
*514 FILLER_0_678
*515 FILLER_0_683
*516 FILLER_0_69
*517 FILLER_0_695
*518 FILLER_0_699
*519 FILLER_0_702
*520 FILLER_0_718
*521 FILLER_0_72
*522 FILLER_0_726
*523 FILLER_0_731
*524 FILLER_0_737
*525 FILLER_0_749
*526 FILLER_0_761
*527 FILLER_0_769
*528 FILLER_0_77
*529 FILLER_0_772
*530 FILLER_0_777
*531 FILLER_0_793
*532 FILLER_0_801
*533 FILLER_0_807
*534 FILLER_0_827
*535 FILLER_0_835
*536 FILLER_0_839
*537 FILLER_0_842
*538 FILLER_0_874
*539 FILLER_0_877
*540 FILLER_0_885
*541 FILLER_0_893
*542 FILLER_0_909
*543 FILLER_0_912
*544 FILLER_0_93
*545 FILLER_0_944
*546 FILLER_0_947
*547 FILLER_0_952
*548 FILLER_0_960
*549 FILLER_0_964
*550 FILLER_0_966
*551 FILLER_0_971
*552 FILLER_0_979
*553 FILLER_0_982
*554 FILLER_0_987
*555 FILLER_0_995
*556 FILLER_100_101
*557 FILLER_100_1024
*558 FILLER_100_1028
*559 FILLER_100_1031
*560 FILLER_100_1039
*561 FILLER_100_1043
*562 FILLER_100_105
*563 FILLER_100_108
*564 FILLER_100_172
*565 FILLER_100_176
*566 FILLER_100_179
*567 FILLER_100_2
*568 FILLER_100_243
*569 FILLER_100_247
*570 FILLER_100_250
*571 FILLER_100_314
*572 FILLER_100_318
*573 FILLER_100_321
*574 FILLER_100_34
*575 FILLER_100_37
*576 FILLER_100_385
*577 FILLER_100_389
*578 FILLER_100_392
*579 FILLER_100_456
*580 FILLER_100_460
*581 FILLER_100_463
*582 FILLER_100_527
*583 FILLER_100_531
*584 FILLER_100_534
*585 FILLER_100_598
*586 FILLER_100_602
*587 FILLER_100_605
*588 FILLER_100_669
*589 FILLER_100_673
*590 FILLER_100_676
*591 FILLER_100_740
*592 FILLER_100_744
*593 FILLER_100_747
*594 FILLER_100_811
*595 FILLER_100_815
*596 FILLER_100_818
*597 FILLER_100_882
*598 FILLER_100_886
*599 FILLER_100_889
*600 FILLER_100_953
*601 FILLER_100_957
*602 FILLER_100_960
*603 FILLER_101_1028
*604 FILLER_101_1036
*605 FILLER_101_1044
*606 FILLER_101_137
*607 FILLER_101_141
*608 FILLER_101_144
*609 FILLER_101_2
*610 FILLER_101_208
*611 FILLER_101_212
*612 FILLER_101_215
*613 FILLER_101_279
*614 FILLER_101_283
*615 FILLER_101_286
*616 FILLER_101_350
*617 FILLER_101_354
*618 FILLER_101_357
*619 FILLER_101_421
*620 FILLER_101_425
*621 FILLER_101_428
*622 FILLER_101_492
*623 FILLER_101_496
*624 FILLER_101_499
*625 FILLER_101_563
*626 FILLER_101_567
*627 FILLER_101_570
*628 FILLER_101_634
*629 FILLER_101_638
*630 FILLER_101_641
*631 FILLER_101_66
*632 FILLER_101_70
*633 FILLER_101_705
*634 FILLER_101_709
*635 FILLER_101_712
*636 FILLER_101_73
*637 FILLER_101_776
*638 FILLER_101_780
*639 FILLER_101_783
*640 FILLER_101_847
*641 FILLER_101_851
*642 FILLER_101_854
*643 FILLER_101_918
*644 FILLER_101_922
*645 FILLER_101_925
*646 FILLER_101_989
*647 FILLER_101_993
*648 FILLER_101_996
*649 FILLER_102_101
*650 FILLER_102_1024
*651 FILLER_102_1028
*652 FILLER_102_1031
*653 FILLER_102_1039
*654 FILLER_102_1043
*655 FILLER_102_105
*656 FILLER_102_108
*657 FILLER_102_13
*658 FILLER_102_172
*659 FILLER_102_176
*660 FILLER_102_179
*661 FILLER_102_2
*662 FILLER_102_243
*663 FILLER_102_247
*664 FILLER_102_250
*665 FILLER_102_29
*666 FILLER_102_314
*667 FILLER_102_318
*668 FILLER_102_321
*669 FILLER_102_33
*670 FILLER_102_37
*671 FILLER_102_385
*672 FILLER_102_389
*673 FILLER_102_392
*674 FILLER_102_456
*675 FILLER_102_460
*676 FILLER_102_463
*677 FILLER_102_527
*678 FILLER_102_531
*679 FILLER_102_534
*680 FILLER_102_598
*681 FILLER_102_602
*682 FILLER_102_605
*683 FILLER_102_669
*684 FILLER_102_673
*685 FILLER_102_676
*686 FILLER_102_7
*687 FILLER_102_740
*688 FILLER_102_744
*689 FILLER_102_747
*690 FILLER_102_811
*691 FILLER_102_815
*692 FILLER_102_818
*693 FILLER_102_882
*694 FILLER_102_886
*695 FILLER_102_889
*696 FILLER_102_953
*697 FILLER_102_957
*698 FILLER_102_960
*699 FILLER_103_1028
*700 FILLER_103_1036
*701 FILLER_103_1044
*702 FILLER_103_137
*703 FILLER_103_141
*704 FILLER_103_144
*705 FILLER_103_2
*706 FILLER_103_208
*707 FILLER_103_212
*708 FILLER_103_215
*709 FILLER_103_279
*710 FILLER_103_283
*711 FILLER_103_286
*712 FILLER_103_350
*713 FILLER_103_354
*714 FILLER_103_357
*715 FILLER_103_421
*716 FILLER_103_425
*717 FILLER_103_428
*718 FILLER_103_492
*719 FILLER_103_496
*720 FILLER_103_499
*721 FILLER_103_563
*722 FILLER_103_567
*723 FILLER_103_570
*724 FILLER_103_634
*725 FILLER_103_638
*726 FILLER_103_641
*727 FILLER_103_66
*728 FILLER_103_70
*729 FILLER_103_705
*730 FILLER_103_709
*731 FILLER_103_712
*732 FILLER_103_73
*733 FILLER_103_776
*734 FILLER_103_780
*735 FILLER_103_783
*736 FILLER_103_847
*737 FILLER_103_851
*738 FILLER_103_854
*739 FILLER_103_918
*740 FILLER_103_922
*741 FILLER_103_925
*742 FILLER_103_989
*743 FILLER_103_993
*744 FILLER_103_996
*745 FILLER_104_101
*746 FILLER_104_1024
*747 FILLER_104_1028
*748 FILLER_104_1031
*749 FILLER_104_1039
*750 FILLER_104_1043
*751 FILLER_104_105
*752 FILLER_104_108
*753 FILLER_104_172
*754 FILLER_104_176
*755 FILLER_104_179
*756 FILLER_104_2
*757 FILLER_104_23
*758 FILLER_104_243
*759 FILLER_104_247
*760 FILLER_104_250
*761 FILLER_104_31
*762 FILLER_104_314
*763 FILLER_104_318
*764 FILLER_104_321
*765 FILLER_104_37
*766 FILLER_104_385
*767 FILLER_104_389
*768 FILLER_104_392
*769 FILLER_104_456
*770 FILLER_104_460
*771 FILLER_104_463
*772 FILLER_104_527
*773 FILLER_104_531
*774 FILLER_104_534
*775 FILLER_104_598
*776 FILLER_104_602
*777 FILLER_104_605
*778 FILLER_104_669
*779 FILLER_104_673
*780 FILLER_104_676
*781 FILLER_104_7
*782 FILLER_104_740
*783 FILLER_104_744
*784 FILLER_104_747
*785 FILLER_104_811
*786 FILLER_104_815
*787 FILLER_104_818
*788 FILLER_104_882
*789 FILLER_104_886
*790 FILLER_104_889
*791 FILLER_104_953
*792 FILLER_104_957
*793 FILLER_104_960
*794 FILLER_105_1028
*795 FILLER_105_1044
*796 FILLER_105_137
*797 FILLER_105_141
*798 FILLER_105_144
*799 FILLER_105_2
*800 FILLER_105_208
*801 FILLER_105_212
*802 FILLER_105_215
*803 FILLER_105_279
*804 FILLER_105_283
*805 FILLER_105_286
*806 FILLER_105_350
*807 FILLER_105_354
*808 FILLER_105_357
*809 FILLER_105_421
*810 FILLER_105_425
*811 FILLER_105_428
*812 FILLER_105_492
*813 FILLER_105_496
*814 FILLER_105_499
*815 FILLER_105_563
*816 FILLER_105_567
*817 FILLER_105_570
*818 FILLER_105_634
*819 FILLER_105_638
*820 FILLER_105_641
*821 FILLER_105_66
*822 FILLER_105_70
*823 FILLER_105_705
*824 FILLER_105_709
*825 FILLER_105_712
*826 FILLER_105_73
*827 FILLER_105_776
*828 FILLER_105_780
*829 FILLER_105_783
*830 FILLER_105_847
*831 FILLER_105_851
*832 FILLER_105_854
*833 FILLER_105_918
*834 FILLER_105_922
*835 FILLER_105_925
*836 FILLER_105_989
*837 FILLER_105_993
*838 FILLER_105_996
*839 FILLER_106_101
*840 FILLER_106_1024
*841 FILLER_106_1028
*842 FILLER_106_1031
*843 FILLER_106_1039
*844 FILLER_106_1043
*845 FILLER_106_105
*846 FILLER_106_108
*847 FILLER_106_172
*848 FILLER_106_176
*849 FILLER_106_179
*850 FILLER_106_2
*851 FILLER_106_243
*852 FILLER_106_247
*853 FILLER_106_250
*854 FILLER_106_314
*855 FILLER_106_318
*856 FILLER_106_321
*857 FILLER_106_34
*858 FILLER_106_37
*859 FILLER_106_385
*860 FILLER_106_389
*861 FILLER_106_392
*862 FILLER_106_456
*863 FILLER_106_460
*864 FILLER_106_463
*865 FILLER_106_527
*866 FILLER_106_531
*867 FILLER_106_534
*868 FILLER_106_598
*869 FILLER_106_602
*870 FILLER_106_605
*871 FILLER_106_669
*872 FILLER_106_673
*873 FILLER_106_676
*874 FILLER_106_740
*875 FILLER_106_744
*876 FILLER_106_747
*877 FILLER_106_811
*878 FILLER_106_815
*879 FILLER_106_818
*880 FILLER_106_882
*881 FILLER_106_886
*882 FILLER_106_889
*883 FILLER_106_953
*884 FILLER_106_957
*885 FILLER_106_960
*886 FILLER_107_1028
*887 FILLER_107_1044
*888 FILLER_107_137
*889 FILLER_107_141
*890 FILLER_107_144
*891 FILLER_107_2
*892 FILLER_107_208
*893 FILLER_107_212
*894 FILLER_107_215
*895 FILLER_107_279
*896 FILLER_107_283
*897 FILLER_107_286
*898 FILLER_107_350
*899 FILLER_107_354
*900 FILLER_107_357
*901 FILLER_107_421
*902 FILLER_107_425
*903 FILLER_107_428
*904 FILLER_107_492
*905 FILLER_107_496
*906 FILLER_107_499
*907 FILLER_107_563
*908 FILLER_107_567
*909 FILLER_107_570
*910 FILLER_107_634
*911 FILLER_107_638
*912 FILLER_107_641
*913 FILLER_107_66
*914 FILLER_107_70
*915 FILLER_107_705
*916 FILLER_107_709
*917 FILLER_107_712
*918 FILLER_107_73
*919 FILLER_107_776
*920 FILLER_107_780
*921 FILLER_107_783
*922 FILLER_107_847
*923 FILLER_107_851
*924 FILLER_107_854
*925 FILLER_107_918
*926 FILLER_107_922
*927 FILLER_107_925
*928 FILLER_107_989
*929 FILLER_107_993
*930 FILLER_107_996
*931 FILLER_108_101
*932 FILLER_108_1024
*933 FILLER_108_1028
*934 FILLER_108_1031
*935 FILLER_108_1039
*936 FILLER_108_1044
*937 FILLER_108_105
*938 FILLER_108_108
*939 FILLER_108_172
*940 FILLER_108_176
*941 FILLER_108_179
*942 FILLER_108_2
*943 FILLER_108_243
*944 FILLER_108_247
*945 FILLER_108_250
*946 FILLER_108_314
*947 FILLER_108_318
*948 FILLER_108_321
*949 FILLER_108_34
*950 FILLER_108_37
*951 FILLER_108_385
*952 FILLER_108_389
*953 FILLER_108_392
*954 FILLER_108_456
*955 FILLER_108_460
*956 FILLER_108_463
*957 FILLER_108_527
*958 FILLER_108_531
*959 FILLER_108_534
*960 FILLER_108_598
*961 FILLER_108_602
*962 FILLER_108_605
*963 FILLER_108_669
*964 FILLER_108_673
*965 FILLER_108_676
*966 FILLER_108_740
*967 FILLER_108_744
*968 FILLER_108_747
*969 FILLER_108_811
*970 FILLER_108_815
*971 FILLER_108_818
*972 FILLER_108_882
*973 FILLER_108_886
*974 FILLER_108_889
*975 FILLER_108_953
*976 FILLER_108_957
*977 FILLER_108_960
*978 FILLER_109_1028
*979 FILLER_109_1044
*980 FILLER_109_137
*981 FILLER_109_141
*982 FILLER_109_144
*983 FILLER_109_2
*984 FILLER_109_208
*985 FILLER_109_212
*986 FILLER_109_215
*987 FILLER_109_279
*988 FILLER_109_283
*989 FILLER_109_286
*990 FILLER_109_350
*991 FILLER_109_354
*992 FILLER_109_357
*993 FILLER_109_421
*994 FILLER_109_425
*995 FILLER_109_428
*996 FILLER_109_492
*997 FILLER_109_496
*998 FILLER_109_499
*999 FILLER_109_563
*1000 FILLER_109_567
*1001 FILLER_109_570
*1002 FILLER_109_634
*1003 FILLER_109_638
*1004 FILLER_109_641
*1005 FILLER_109_66
*1006 FILLER_109_70
*1007 FILLER_109_705
*1008 FILLER_109_709
*1009 FILLER_109_712
*1010 FILLER_109_73
*1011 FILLER_109_776
*1012 FILLER_109_780
*1013 FILLER_109_783
*1014 FILLER_109_847
*1015 FILLER_109_851
*1016 FILLER_109_854
*1017 FILLER_109_918
*1018 FILLER_109_922
*1019 FILLER_109_925
*1020 FILLER_109_989
*1021 FILLER_109_993
*1022 FILLER_109_996
*1023 FILLER_10_101
*1024 FILLER_10_1024
*1025 FILLER_10_1028
*1026 FILLER_10_1031
*1027 FILLER_10_1039
*1028 FILLER_10_1043
*1029 FILLER_10_105
*1030 FILLER_10_108
*1031 FILLER_10_172
*1032 FILLER_10_176
*1033 FILLER_10_179
*1034 FILLER_10_2
*1035 FILLER_10_23
*1036 FILLER_10_243
*1037 FILLER_10_247
*1038 FILLER_10_250
*1039 FILLER_10_31
*1040 FILLER_10_314
*1041 FILLER_10_318
*1042 FILLER_10_321
*1043 FILLER_10_37
*1044 FILLER_10_385
*1045 FILLER_10_389
*1046 FILLER_10_392
*1047 FILLER_10_456
*1048 FILLER_10_460
*1049 FILLER_10_463
*1050 FILLER_10_527
*1051 FILLER_10_531
*1052 FILLER_10_534
*1053 FILLER_10_598
*1054 FILLER_10_602
*1055 FILLER_10_605
*1056 FILLER_10_669
*1057 FILLER_10_673
*1058 FILLER_10_676
*1059 FILLER_10_7
*1060 FILLER_10_740
*1061 FILLER_10_744
*1062 FILLER_10_747
*1063 FILLER_10_811
*1064 FILLER_10_815
*1065 FILLER_10_818
*1066 FILLER_10_882
*1067 FILLER_10_886
*1068 FILLER_10_889
*1069 FILLER_10_953
*1070 FILLER_10_957
*1071 FILLER_10_960
*1072 FILLER_110_101
*1073 FILLER_110_1024
*1074 FILLER_110_1028
*1075 FILLER_110_1031
*1076 FILLER_110_1039
*1077 FILLER_110_1043
*1078 FILLER_110_105
*1079 FILLER_110_108
*1080 FILLER_110_172
*1081 FILLER_110_176
*1082 FILLER_110_179
*1083 FILLER_110_2
*1084 FILLER_110_243
*1085 FILLER_110_247
*1086 FILLER_110_250
*1087 FILLER_110_314
*1088 FILLER_110_318
*1089 FILLER_110_321
*1090 FILLER_110_34
*1091 FILLER_110_37
*1092 FILLER_110_385
*1093 FILLER_110_389
*1094 FILLER_110_392
*1095 FILLER_110_456
*1096 FILLER_110_460
*1097 FILLER_110_463
*1098 FILLER_110_527
*1099 FILLER_110_531
*1100 FILLER_110_534
*1101 FILLER_110_598
*1102 FILLER_110_602
*1103 FILLER_110_605
*1104 FILLER_110_669
*1105 FILLER_110_673
*1106 FILLER_110_676
*1107 FILLER_110_740
*1108 FILLER_110_744
*1109 FILLER_110_747
*1110 FILLER_110_811
*1111 FILLER_110_815
*1112 FILLER_110_818
*1113 FILLER_110_882
*1114 FILLER_110_886
*1115 FILLER_110_889
*1116 FILLER_110_953
*1117 FILLER_110_957
*1118 FILLER_110_960
*1119 FILLER_111_1028
*1120 FILLER_111_1044
*1121 FILLER_111_137
*1122 FILLER_111_141
*1123 FILLER_111_144
*1124 FILLER_111_2
*1125 FILLER_111_208
*1126 FILLER_111_212
*1127 FILLER_111_215
*1128 FILLER_111_279
*1129 FILLER_111_283
*1130 FILLER_111_286
*1131 FILLER_111_350
*1132 FILLER_111_354
*1133 FILLER_111_357
*1134 FILLER_111_421
*1135 FILLER_111_425
*1136 FILLER_111_428
*1137 FILLER_111_492
*1138 FILLER_111_496
*1139 FILLER_111_499
*1140 FILLER_111_563
*1141 FILLER_111_567
*1142 FILLER_111_570
*1143 FILLER_111_634
*1144 FILLER_111_638
*1145 FILLER_111_641
*1146 FILLER_111_66
*1147 FILLER_111_70
*1148 FILLER_111_705
*1149 FILLER_111_709
*1150 FILLER_111_712
*1151 FILLER_111_73
*1152 FILLER_111_776
*1153 FILLER_111_780
*1154 FILLER_111_783
*1155 FILLER_111_847
*1156 FILLER_111_851
*1157 FILLER_111_854
*1158 FILLER_111_918
*1159 FILLER_111_922
*1160 FILLER_111_925
*1161 FILLER_111_989
*1162 FILLER_111_993
*1163 FILLER_111_996
*1164 FILLER_112_101
*1165 FILLER_112_1024
*1166 FILLER_112_1028
*1167 FILLER_112_1031
*1168 FILLER_112_1039
*1169 FILLER_112_1044
*1170 FILLER_112_105
*1171 FILLER_112_108
*1172 FILLER_112_172
*1173 FILLER_112_176
*1174 FILLER_112_179
*1175 FILLER_112_2
*1176 FILLER_112_23
*1177 FILLER_112_243
*1178 FILLER_112_247
*1179 FILLER_112_250
*1180 FILLER_112_31
*1181 FILLER_112_314
*1182 FILLER_112_318
*1183 FILLER_112_321
*1184 FILLER_112_37
*1185 FILLER_112_385
*1186 FILLER_112_389
*1187 FILLER_112_392
*1188 FILLER_112_456
*1189 FILLER_112_460
*1190 FILLER_112_463
*1191 FILLER_112_527
*1192 FILLER_112_531
*1193 FILLER_112_534
*1194 FILLER_112_598
*1195 FILLER_112_602
*1196 FILLER_112_605
*1197 FILLER_112_669
*1198 FILLER_112_673
*1199 FILLER_112_676
*1200 FILLER_112_7
*1201 FILLER_112_740
*1202 FILLER_112_744
*1203 FILLER_112_747
*1204 FILLER_112_811
*1205 FILLER_112_815
*1206 FILLER_112_818
*1207 FILLER_112_882
*1208 FILLER_112_886
*1209 FILLER_112_889
*1210 FILLER_112_953
*1211 FILLER_112_957
*1212 FILLER_112_960
*1213 FILLER_113_1028
*1214 FILLER_113_1044
*1215 FILLER_113_137
*1216 FILLER_113_141
*1217 FILLER_113_144
*1218 FILLER_113_2
*1219 FILLER_113_208
*1220 FILLER_113_212
*1221 FILLER_113_215
*1222 FILLER_113_279
*1223 FILLER_113_283
*1224 FILLER_113_286
*1225 FILLER_113_350
*1226 FILLER_113_354
*1227 FILLER_113_357
*1228 FILLER_113_421
*1229 FILLER_113_425
*1230 FILLER_113_428
*1231 FILLER_113_492
*1232 FILLER_113_496
*1233 FILLER_113_499
*1234 FILLER_113_563
*1235 FILLER_113_567
*1236 FILLER_113_570
*1237 FILLER_113_634
*1238 FILLER_113_638
*1239 FILLER_113_641
*1240 FILLER_113_66
*1241 FILLER_113_70
*1242 FILLER_113_705
*1243 FILLER_113_709
*1244 FILLER_113_712
*1245 FILLER_113_73
*1246 FILLER_113_776
*1247 FILLER_113_780
*1248 FILLER_113_783
*1249 FILLER_113_847
*1250 FILLER_113_851
*1251 FILLER_113_854
*1252 FILLER_113_918
*1253 FILLER_113_922
*1254 FILLER_113_925
*1255 FILLER_113_989
*1256 FILLER_113_993
*1257 FILLER_113_996
*1258 FILLER_114_101
*1259 FILLER_114_1024
*1260 FILLER_114_1028
*1261 FILLER_114_1031
*1262 FILLER_114_1039
*1263 FILLER_114_1043
*1264 FILLER_114_105
*1265 FILLER_114_108
*1266 FILLER_114_172
*1267 FILLER_114_176
*1268 FILLER_114_179
*1269 FILLER_114_2
*1270 FILLER_114_23
*1271 FILLER_114_243
*1272 FILLER_114_247
*1273 FILLER_114_250
*1274 FILLER_114_31
*1275 FILLER_114_314
*1276 FILLER_114_318
*1277 FILLER_114_321
*1278 FILLER_114_37
*1279 FILLER_114_385
*1280 FILLER_114_389
*1281 FILLER_114_392
*1282 FILLER_114_456
*1283 FILLER_114_460
*1284 FILLER_114_463
*1285 FILLER_114_527
*1286 FILLER_114_531
*1287 FILLER_114_534
*1288 FILLER_114_598
*1289 FILLER_114_602
*1290 FILLER_114_605
*1291 FILLER_114_669
*1292 FILLER_114_673
*1293 FILLER_114_676
*1294 FILLER_114_7
*1295 FILLER_114_740
*1296 FILLER_114_744
*1297 FILLER_114_747
*1298 FILLER_114_811
*1299 FILLER_114_815
*1300 FILLER_114_818
*1301 FILLER_114_882
*1302 FILLER_114_886
*1303 FILLER_114_889
*1304 FILLER_114_953
*1305 FILLER_114_957
*1306 FILLER_114_960
*1307 FILLER_115_1028
*1308 FILLER_115_1044
*1309 FILLER_115_137
*1310 FILLER_115_141
*1311 FILLER_115_144
*1312 FILLER_115_2
*1313 FILLER_115_208
*1314 FILLER_115_212
*1315 FILLER_115_215
*1316 FILLER_115_279
*1317 FILLER_115_283
*1318 FILLER_115_286
*1319 FILLER_115_350
*1320 FILLER_115_354
*1321 FILLER_115_357
*1322 FILLER_115_421
*1323 FILLER_115_425
*1324 FILLER_115_428
*1325 FILLER_115_492
*1326 FILLER_115_496
*1327 FILLER_115_499
*1328 FILLER_115_563
*1329 FILLER_115_567
*1330 FILLER_115_570
*1331 FILLER_115_634
*1332 FILLER_115_638
*1333 FILLER_115_641
*1334 FILLER_115_66
*1335 FILLER_115_70
*1336 FILLER_115_705
*1337 FILLER_115_709
*1338 FILLER_115_712
*1339 FILLER_115_73
*1340 FILLER_115_776
*1341 FILLER_115_780
*1342 FILLER_115_783
*1343 FILLER_115_847
*1344 FILLER_115_851
*1345 FILLER_115_854
*1346 FILLER_115_918
*1347 FILLER_115_922
*1348 FILLER_115_925
*1349 FILLER_115_989
*1350 FILLER_115_993
*1351 FILLER_115_996
*1352 FILLER_116_101
*1353 FILLER_116_1024
*1354 FILLER_116_1028
*1355 FILLER_116_1031
*1356 FILLER_116_1039
*1357 FILLER_116_1043
*1358 FILLER_116_105
*1359 FILLER_116_108
*1360 FILLER_116_172
*1361 FILLER_116_176
*1362 FILLER_116_179
*1363 FILLER_116_2
*1364 FILLER_116_243
*1365 FILLER_116_247
*1366 FILLER_116_250
*1367 FILLER_116_314
*1368 FILLER_116_318
*1369 FILLER_116_321
*1370 FILLER_116_34
*1371 FILLER_116_37
*1372 FILLER_116_385
*1373 FILLER_116_389
*1374 FILLER_116_392
*1375 FILLER_116_456
*1376 FILLER_116_460
*1377 FILLER_116_463
*1378 FILLER_116_527
*1379 FILLER_116_531
*1380 FILLER_116_534
*1381 FILLER_116_598
*1382 FILLER_116_602
*1383 FILLER_116_605
*1384 FILLER_116_669
*1385 FILLER_116_673
*1386 FILLER_116_676
*1387 FILLER_116_740
*1388 FILLER_116_744
*1389 FILLER_116_747
*1390 FILLER_116_811
*1391 FILLER_116_815
*1392 FILLER_116_818
*1393 FILLER_116_882
*1394 FILLER_116_886
*1395 FILLER_116_889
*1396 FILLER_116_953
*1397 FILLER_116_957
*1398 FILLER_116_960
*1399 FILLER_117_1028
*1400 FILLER_117_1044
*1401 FILLER_117_137
*1402 FILLER_117_141
*1403 FILLER_117_144
*1404 FILLER_117_2
*1405 FILLER_117_208
*1406 FILLER_117_212
*1407 FILLER_117_215
*1408 FILLER_117_279
*1409 FILLER_117_283
*1410 FILLER_117_286
*1411 FILLER_117_350
*1412 FILLER_117_354
*1413 FILLER_117_357
*1414 FILLER_117_421
*1415 FILLER_117_425
*1416 FILLER_117_428
*1417 FILLER_117_492
*1418 FILLER_117_496
*1419 FILLER_117_499
*1420 FILLER_117_563
*1421 FILLER_117_567
*1422 FILLER_117_570
*1423 FILLER_117_634
*1424 FILLER_117_638
*1425 FILLER_117_641
*1426 FILLER_117_7
*1427 FILLER_117_705
*1428 FILLER_117_709
*1429 FILLER_117_712
*1430 FILLER_117_73
*1431 FILLER_117_776
*1432 FILLER_117_780
*1433 FILLER_117_783
*1434 FILLER_117_847
*1435 FILLER_117_851
*1436 FILLER_117_854
*1437 FILLER_117_918
*1438 FILLER_117_922
*1439 FILLER_117_925
*1440 FILLER_117_989
*1441 FILLER_117_993
*1442 FILLER_117_996
*1443 FILLER_118_101
*1444 FILLER_118_1024
*1445 FILLER_118_1028
*1446 FILLER_118_1031
*1447 FILLER_118_1039
*1448 FILLER_118_1044
*1449 FILLER_118_105
*1450 FILLER_118_108
*1451 FILLER_118_172
*1452 FILLER_118_176
*1453 FILLER_118_179
*1454 FILLER_118_2
*1455 FILLER_118_243
*1456 FILLER_118_247
*1457 FILLER_118_250
*1458 FILLER_118_314
*1459 FILLER_118_318
*1460 FILLER_118_321
*1461 FILLER_118_34
*1462 FILLER_118_37
*1463 FILLER_118_385
*1464 FILLER_118_389
*1465 FILLER_118_392
*1466 FILLER_118_456
*1467 FILLER_118_460
*1468 FILLER_118_463
*1469 FILLER_118_527
*1470 FILLER_118_531
*1471 FILLER_118_534
*1472 FILLER_118_598
*1473 FILLER_118_602
*1474 FILLER_118_605
*1475 FILLER_118_669
*1476 FILLER_118_673
*1477 FILLER_118_676
*1478 FILLER_118_740
*1479 FILLER_118_744
*1480 FILLER_118_747
*1481 FILLER_118_811
*1482 FILLER_118_815
*1483 FILLER_118_818
*1484 FILLER_118_882
*1485 FILLER_118_886
*1486 FILLER_118_889
*1487 FILLER_118_953
*1488 FILLER_118_957
*1489 FILLER_118_960
*1490 FILLER_119_1028
*1491 FILLER_119_1044
*1492 FILLER_119_137
*1493 FILLER_119_141
*1494 FILLER_119_144
*1495 FILLER_119_2
*1496 FILLER_119_208
*1497 FILLER_119_212
*1498 FILLER_119_215
*1499 FILLER_119_279
*1500 FILLER_119_283
*1501 FILLER_119_286
*1502 FILLER_119_350
*1503 FILLER_119_354
*1504 FILLER_119_357
*1505 FILLER_119_421
*1506 FILLER_119_425
*1507 FILLER_119_428
*1508 FILLER_119_492
*1509 FILLER_119_496
*1510 FILLER_119_499
*1511 FILLER_119_563
*1512 FILLER_119_567
*1513 FILLER_119_570
*1514 FILLER_119_634
*1515 FILLER_119_638
*1516 FILLER_119_641
*1517 FILLER_119_7
*1518 FILLER_119_705
*1519 FILLER_119_709
*1520 FILLER_119_712
*1521 FILLER_119_73
*1522 FILLER_119_776
*1523 FILLER_119_780
*1524 FILLER_119_783
*1525 FILLER_119_847
*1526 FILLER_119_851
*1527 FILLER_119_854
*1528 FILLER_119_918
*1529 FILLER_119_922
*1530 FILLER_119_925
*1531 FILLER_119_989
*1532 FILLER_119_993
*1533 FILLER_119_996
*1534 FILLER_11_1028
*1535 FILLER_11_1036
*1536 FILLER_11_1044
*1537 FILLER_11_137
*1538 FILLER_11_141
*1539 FILLER_11_144
*1540 FILLER_11_2
*1541 FILLER_11_208
*1542 FILLER_11_212
*1543 FILLER_11_215
*1544 FILLER_11_279
*1545 FILLER_11_283
*1546 FILLER_11_286
*1547 FILLER_11_350
*1548 FILLER_11_354
*1549 FILLER_11_357
*1550 FILLER_11_421
*1551 FILLER_11_425
*1552 FILLER_11_428
*1553 FILLER_11_492
*1554 FILLER_11_496
*1555 FILLER_11_499
*1556 FILLER_11_563
*1557 FILLER_11_567
*1558 FILLER_11_570
*1559 FILLER_11_634
*1560 FILLER_11_638
*1561 FILLER_11_641
*1562 FILLER_11_66
*1563 FILLER_11_70
*1564 FILLER_11_705
*1565 FILLER_11_709
*1566 FILLER_11_712
*1567 FILLER_11_73
*1568 FILLER_11_776
*1569 FILLER_11_780
*1570 FILLER_11_783
*1571 FILLER_11_847
*1572 FILLER_11_851
*1573 FILLER_11_854
*1574 FILLER_11_918
*1575 FILLER_11_922
*1576 FILLER_11_925
*1577 FILLER_11_989
*1578 FILLER_11_993
*1579 FILLER_11_996
*1580 FILLER_120_101
*1581 FILLER_120_1024
*1582 FILLER_120_1028
*1583 FILLER_120_1031
*1584 FILLER_120_1039
*1585 FILLER_120_1044
*1586 FILLER_120_105