*SPEF "ieee 1481-1999"
*DESIGN "user_project_wrapper"
*DATE "11:11:11 Fri 11 11, 1111"
*VENDOR "OpenRCX"
*PROGRAM "Parallel Extraction"
*VERSION "1.0"
*DESIGN_FLOW "NAME_SCOPE LOCAL" "PIN_CAP NONE"
*DIVIDER /
*DELIMITER :
*BUS_DELIMITER []
*T_UNIT 1 NS
*C_UNIT 1 PF
*R_UNIT 1 OHM
*L_UNIT 1 HENRY

*NAME_MAP
*1 io_in[0]
*2 io_in[10]
*3 io_in[11]
*4 io_in[12]
*5 io_in[13]
*6 io_in[14]
*7 io_in[15]
*8 io_in[16]
*9 io_in[17]
*10 io_in[18]
*11 io_in[19]
*12 io_in[1]
*13 io_in[20]
*14 io_in[21]
*15 io_in[22]
*16 io_in[23]
*17 io_in[24]
*18 io_in[25]
*19 io_in[26]
*20 io_in[27]
*21 io_in[28]
*22 io_in[29]
*23 io_in[2]
*24 io_in[30]
*25 io_in[31]
*26 io_in[32]
*27 io_in[33]
*28 io_in[34]
*29 io_in[35]
*30 io_in[36]
*31 io_in[37]
*32 io_in[3]
*33 io_in[4]
*34 io_in[5]
*35 io_in[6]
*36 io_in[7]
*37 io_in[8]
*38 io_in[9]
*39 io_oeb[0]
*40 io_oeb[10]
*41 io_oeb[11]
*42 io_oeb[12]
*43 io_oeb[13]
*44 io_oeb[14]
*45 io_oeb[15]
*46 io_oeb[16]
*47 io_oeb[17]
*48 io_oeb[18]
*49 io_oeb[19]
*50 io_oeb[1]
*51 io_oeb[20]
*52 io_oeb[21]
*53 io_oeb[22]
*54 io_oeb[23]
*55 io_oeb[24]
*56 io_oeb[25]
*57 io_oeb[26]
*58 io_oeb[27]
*59 io_oeb[28]
*60 io_oeb[29]
*61 io_oeb[2]
*62 io_oeb[30]
*63 io_oeb[31]
*64 io_oeb[32]
*65 io_oeb[33]
*66 io_oeb[34]
*67 io_oeb[35]
*68 io_oeb[36]
*69 io_oeb[37]
*70 io_oeb[3]
*71 io_oeb[4]
*72 io_oeb[5]
*73 io_oeb[6]
*74 io_oeb[7]
*75 io_oeb[8]
*76 io_oeb[9]
*77 io_out[0]
*78 io_out[10]
*79 io_out[11]
*80 io_out[12]
*81 io_out[13]
*82 io_out[14]
*83 io_out[15]
*84 io_out[16]
*85 io_out[17]
*86 io_out[18]
*87 io_out[19]
*88 io_out[1]
*89 io_out[20]
*90 io_out[21]
*91 io_out[22]
*92 io_out[23]
*93 io_out[24]
*94 io_out[25]
*95 io_out[26]
*96 io_out[27]
*97 io_out[28]
*98 io_out[29]
*99 io_out[2]
*100 io_out[30]
*101 io_out[31]
*102 io_out[32]
*103 io_out[33]
*104 io_out[34]
*105 io_out[35]
*106 io_out[36]
*107 io_out[37]
*108 io_out[3]
*109 io_out[4]
*110 io_out[5]
*111 io_out[6]
*112 io_out[7]
*113 io_out[8]
*114 io_out[9]
*115 la_data_in[0]
*116 la_data_in[10]
*117 la_data_in[11]
*118 la_data_in[12]
*119 la_data_in[13]
*120 la_data_in[14]
*121 la_data_in[15]
*122 la_data_in[16]
*123 la_data_in[17]
*124 la_data_in[18]
*125 la_data_in[19]
*126 la_data_in[1]
*127 la_data_in[20]
*128 la_data_in[21]
*129 la_data_in[22]
*130 la_data_in[23]
*131 la_data_in[24]
*132 la_data_in[25]
*133 la_data_in[26]
*134 la_data_in[27]
*135 la_data_in[28]
*136 la_data_in[29]
*137 la_data_in[2]
*138 la_data_in[30]
*139 la_data_in[31]
*140 la_data_in[32]
*141 la_data_in[33]
*142 la_data_in[34]
*143 la_data_in[35]
*144 la_data_in[36]
*145 la_data_in[37]
*146 la_data_in[38]
*147 la_data_in[39]
*148 la_data_in[3]
*149 la_data_in[40]
*150 la_data_in[41]
*151 la_data_in[42]
*152 la_data_in[43]
*153 la_data_in[44]
*154 la_data_in[45]
*155 la_data_in[46]
*156 la_data_in[47]
*157 la_data_in[48]
*158 la_data_in[49]
*159 la_data_in[4]
*160 la_data_in[50]
*161 la_data_in[51]
*162 la_data_in[52]
*163 la_data_in[53]
*164 la_data_in[54]
*165 la_data_in[55]
*166 la_data_in[56]
*167 la_data_in[57]
*168 la_data_in[58]
*169 la_data_in[59]
*170 la_data_in[5]
*171 la_data_in[60]
*172 la_data_in[61]
*173 la_data_in[62]
*174 la_data_in[63]
*175 la_data_in[6]
*176 la_data_in[7]
*177 la_data_in[8]
*178 la_data_in[9]
*179 la_data_out[0]
*180 la_data_out[10]
*181 la_data_out[11]
*182 la_data_out[12]
*183 la_data_out[13]
*184 la_data_out[14]
*185 la_data_out[15]
*186 la_data_out[16]
*187 la_data_out[17]
*188 la_data_out[18]
*189 la_data_out[19]
*190 la_data_out[1]
*191 la_data_out[20]
*192 la_data_out[21]
*193 la_data_out[22]
*194 la_data_out[23]
*195 la_data_out[24]
*196 la_data_out[25]
*197 la_data_out[26]
*198 la_data_out[27]
*199 la_data_out[28]
*200 la_data_out[29]
*201 la_data_out[2]
*202 la_data_out[30]
*203 la_data_out[31]
*204 la_data_out[32]
*205 la_data_out[33]
*206 la_data_out[34]
*207 la_data_out[35]
*208 la_data_out[36]
*209 la_data_out[37]
*210 la_data_out[38]
*211 la_data_out[39]
*212 la_data_out[3]
*213 la_data_out[40]
*214 la_data_out[41]
*215 la_data_out[42]
*216 la_data_out[43]
*217 la_data_out[44]
*218 la_data_out[45]
*219 la_data_out[46]
*220 la_data_out[47]
*221 la_data_out[48]
*222 la_data_out[49]
*223 la_data_out[4]
*224 la_data_out[50]
*225 la_data_out[51]
*226 la_data_out[52]
*227 la_data_out[53]
*228 la_data_out[54]
*229 la_data_out[55]
*230 la_data_out[56]
*231 la_data_out[57]
*232 la_data_out[58]
*233 la_data_out[59]
*234 la_data_out[5]
*235 la_data_out[60]
*236 la_data_out[61]
*237 la_data_out[62]
*238 la_data_out[63]
*239 la_data_out[6]
*240 la_data_out[7]
*241 la_data_out[8]
*242 la_data_out[9]
*243 la_oenb[0]
*244 la_oenb[10]
*245 la_oenb[11]
*246 la_oenb[12]
*247 la_oenb[13]
*248 la_oenb[14]
*249 la_oenb[15]
*250 la_oenb[16]
*251 la_oenb[17]
*252 la_oenb[18]
*253 la_oenb[19]
*254 la_oenb[1]
*255 la_oenb[20]
*256 la_oenb[21]
*257 la_oenb[22]
*258 la_oenb[23]
*259 la_oenb[24]
*260 la_oenb[25]
*261 la_oenb[26]
*262 la_oenb[27]
*263 la_oenb[28]
*264 la_oenb[29]
*265 la_oenb[2]
*266 la_oenb[30]
*267 la_oenb[31]
*268 la_oenb[32]
*269 la_oenb[33]
*270 la_oenb[34]
*271 la_oenb[35]
*272 la_oenb[36]
*273 la_oenb[37]
*274 la_oenb[38]
*275 la_oenb[39]
*276 la_oenb[3]
*277 la_oenb[40]
*278 la_oenb[41]
*279 la_oenb[42]
*280 la_oenb[43]
*281 la_oenb[44]
*282 la_oenb[45]
*283 la_oenb[46]
*284 la_oenb[47]
*285 la_oenb[48]
*286 la_oenb[49]
*287 la_oenb[4]
*288 la_oenb[50]
*289 la_oenb[51]
*290 la_oenb[52]
*291 la_oenb[53]
*292 la_oenb[54]
*293 la_oenb[55]
*294 la_oenb[56]
*295 la_oenb[57]
*296 la_oenb[58]
*297 la_oenb[59]
*298 la_oenb[5]
*299 la_oenb[60]
*300 la_oenb[61]
*301 la_oenb[62]
*302 la_oenb[63]
*303 la_oenb[6]
*304 la_oenb[7]
*305 la_oenb[8]
*306 la_oenb[9]
*307 user_clock2
*308 user_irq[0]
*309 user_irq[1]
*310 user_irq[2]
*313 wb_clk_i
*314 wb_rst_i
*315 wbs_ack_o
*316 wbs_adr_i[0]
*317 wbs_adr_i[10]
*318 wbs_adr_i[11]
*319 wbs_adr_i[12]
*320 wbs_adr_i[13]
*321 wbs_adr_i[14]
*322 wbs_adr_i[15]
*323 wbs_adr_i[16]
*324 wbs_adr_i[17]
*325 wbs_adr_i[18]
*326 wbs_adr_i[19]
*327 wbs_adr_i[1]
*328 wbs_adr_i[20]
*329 wbs_adr_i[21]
*330 wbs_adr_i[22]
*331 wbs_adr_i[23]
*332 wbs_adr_i[24]
*333 wbs_adr_i[25]
*334 wbs_adr_i[26]
*335 wbs_adr_i[27]
*336 wbs_adr_i[28]
*337 wbs_adr_i[29]
*338 wbs_adr_i[2]
*339 wbs_adr_i[30]
*340 wbs_adr_i[31]
*341 wbs_adr_i[3]
*342 wbs_adr_i[4]
*343 wbs_adr_i[5]
*344 wbs_adr_i[6]
*345 wbs_adr_i[7]
*346 wbs_adr_i[8]
*347 wbs_adr_i[9]
*348 wbs_cyc_i
*349 wbs_dat_i[0]
*350 wbs_dat_i[10]
*351 wbs_dat_i[11]
*352 wbs_dat_i[12]
*353 wbs_dat_i[13]
*354 wbs_dat_i[14]
*355 wbs_dat_i[15]
*356 wbs_dat_i[16]
*357 wbs_dat_i[17]
*358 wbs_dat_i[18]
*359 wbs_dat_i[19]
*360 wbs_dat_i[1]
*361 wbs_dat_i[20]
*362 wbs_dat_i[21]
*363 wbs_dat_i[22]
*364 wbs_dat_i[23]
*365 wbs_dat_i[24]
*366 wbs_dat_i[25]
*367 wbs_dat_i[26]
*368 wbs_dat_i[27]
*369 wbs_dat_i[28]
*370 wbs_dat_i[29]
*371 wbs_dat_i[2]
*372 wbs_dat_i[30]
*373 wbs_dat_i[31]
*374 wbs_dat_i[3]
*375 wbs_dat_i[4]
*376 wbs_dat_i[5]
*377 wbs_dat_i[6]
*378 wbs_dat_i[7]
*379 wbs_dat_i[8]
*380 wbs_dat_i[9]
*381 wbs_dat_o[0]
*382 wbs_dat_o[10]
*383 wbs_dat_o[11]
*384 wbs_dat_o[12]
*385 wbs_dat_o[13]
*386 wbs_dat_o[14]
*387 wbs_dat_o[15]
*388 wbs_dat_o[16]
*389 wbs_dat_o[17]
*390 wbs_dat_o[18]
*391 wbs_dat_o[19]
*392 wbs_dat_o[1]
*393 wbs_dat_o[20]
*394 wbs_dat_o[21]
*395 wbs_dat_o[22]
*396 wbs_dat_o[23]
*397 wbs_dat_o[24]
*398 wbs_dat_o[25]
*399 wbs_dat_o[26]
*400 wbs_dat_o[27]
*401 wbs_dat_o[28]
*402 wbs_dat_o[29]
*403 wbs_dat_o[2]
*404 wbs_dat_o[30]
*405 wbs_dat_o[31]
*406 wbs_dat_o[3]
*407 wbs_dat_o[4]
*408 wbs_dat_o[5]
*409 wbs_dat_o[6]
*410 wbs_dat_o[7]
*411 wbs_dat_o[8]
*412 wbs_dat_o[9]
*413 wbs_sel_i[0]
*414 wbs_sel_i[1]
*415 wbs_sel_i[2]
*416 wbs_sel_i[3]
*417 wbs_stb_i
*418 wbs_we_i
*419 mprj

*PORTS
io_in[0] I
io_in[10] I
io_in[11] I
io_in[12] I
io_in[13] I
io_in[14] I
io_in[15] I
io_in[16] I
io_in[17] I
io_in[18] I
io_in[19] I
io_in[1] I
io_in[20] I
io_in[21] I
io_in[22] I
io_in[23] I
io_in[24] I
io_in[25] I
io_in[26] I
io_in[27] I
io_in[28] I
io_in[29] I
io_in[2] I
io_in[30] I
io_in[31] I
io_in[32] I
io_in[33] I
io_in[34] I
io_in[35] I
io_in[36] I
io_in[37] I
io_in[3] I
io_in[4] I
io_in[5] I
io_in[6] I
io_in[7] I
io_in[8] I
io_in[9] I
io_oeb[0] O
io_oeb[10] O
io_oeb[11] O
io_oeb[12] O
io_oeb[13] O
io_oeb[14] O
io_oeb[15] O
io_oeb[16] O
io_oeb[17] O
io_oeb[18] O
io_oeb[19] O
io_oeb[1] O
io_oeb[20] O
io_oeb[21] O
io_oeb[22] O
io_oeb[23] O
io_oeb[24] O
io_oeb[25] O
io_oeb[26] O
io_oeb[27] O
io_oeb[28] O
io_oeb[29] O
io_oeb[2] O
io_oeb[30] O
io_oeb[31] O
io_oeb[32] O
io_oeb[33] O
io_oeb[34] O
io_oeb[35] O
io_oeb[36] O
io_oeb[37] O
io_oeb[3] O
io_oeb[4] O
io_oeb[5] O
io_oeb[6] O
io_oeb[7] O
io_oeb[8] O
io_oeb[9] O
io_out[0] O
io_out[10] O
io_out[11] O
io_out[12] O
io_out[13] O
io_out[14] O
io_out[15] O
io_out[16] O
io_out[17] O
io_out[18] O
io_out[19] O
io_out[1] O
io_out[20] O
io_out[21] O
io_out[22] O
io_out[23] O
io_out[24] O
io_out[25] O
io_out[26] O
io_out[27] O
io_out[28] O
io_out[29] O
io_out[2] O
io_out[30] O
io_out[31] O
io_out[32] O
io_out[33] O
io_out[34] O
io_out[35] O
io_out[36] O
io_out[37] O
io_out[3] O
io_out[4] O
io_out[5] O
io_out[6] O
io_out[7] O
io_out[8] O
io_out[9] O
la_data_in[0] I
la_data_in[10] I
la_data_in[11] I
la_data_in[12] I
la_data_in[13] I
la_data_in[14] I
la_data_in[15] I
la_data_in[16] I
la_data_in[17] I
la_data_in[18] I
la_data_in[19] I
la_data_in[1] I
la_data_in[20] I
la_data_in[21] I
la_data_in[22] I
la_data_in[23] I
la_data_in[24] I
la_data_in[25] I
la_data_in[26] I
la_data_in[27] I
la_data_in[28] I
la_data_in[29] I
la_data_in[2] I
la_data_in[30] I
la_data_in[31] I
la_data_in[32] I
la_data_in[33] I
la_data_in[34] I
la_data_in[35] I
la_data_in[36] I
la_data_in[37] I
la_data_in[38] I
la_data_in[39] I
la_data_in[3] I
la_data_in[40] I
la_data_in[41] I
la_data_in[42] I
la_data_in[43] I
la_data_in[44] I
la_data_in[45] I
la_data_in[46] I
la_data_in[47] I
la_data_in[48] I
la_data_in[49] I
la_data_in[4] I
la_data_in[50] I
la_data_in[51] I
la_data_in[52] I
la_data_in[53] I
la_data_in[54] I
la_data_in[55] I
la_data_in[56] I
la_data_in[57] I
la_data_in[58] I
la_data_in[59] I
la_data_in[5] I
la_data_in[60] I
la_data_in[61] I
la_data_in[62] I
la_data_in[63] I
la_data_in[6] I
la_data_in[7] I
la_data_in[8] I
la_data_in[9] I
la_data_out[0] O
la_data_out[10] O
la_data_out[11] O
la_data_out[12] O
la_data_out[13] O
la_data_out[14] O
la_data_out[15] O
la_data_out[16] O
la_data_out[17] O
la_data_out[18] O
la_data_out[19] O
la_data_out[1] O
la_data_out[20] O
la_data_out[21] O
la_data_out[22] O
la_data_out[23] O
la_data_out[24] O
la_data_out[25] O
la_data_out[26] O
la_data_out[27] O
la_data_out[28] O
la_data_out[29] O
la_data_out[2] O
la_data_out[30] O
la_data_out[31] O
la_data_out[32] O
la_data_out[33] O
la_data_out[34] O
la_data_out[35] O
la_data_out[36] O
la_data_out[37] O
la_data_out[38] O
la_data_out[39] O
la_data_out[3] O
la_data_out[40] O
la_data_out[41] O
la_data_out[42] O
la_data_out[43] O
la_data_out[44] O
la_data_out[45] O
la_data_out[46] O
la_data_out[47] O
la_data_out[48] O
la_data_out[49] O
la_data_out[4] O
la_data_out[50] O
la_data_out[51] O
la_data_out[52] O
la_data_out[53] O
la_data_out[54] O
la_data_out[55] O
la_data_out[56] O
la_data_out[57] O
la_data_out[58] O
la_data_out[59] O
la_data_out[5] O
la_data_out[60] O
la_data_out[61] O
la_data_out[62] O
la_data_out[63] O
la_data_out[6] O
la_data_out[7] O
la_data_out[8] O
la_data_out[9] O
la_oenb[0] I
la_oenb[10] I
la_oenb[11] I
la_oenb[12] I
la_oenb[13] I
la_oenb[14] I
la_oenb[15] I
la_oenb[16] I
la_oenb[17] I
la_oenb[18] I
la_oenb[19] I
la_oenb[1] I
la_oenb[20] I
la_oenb[21] I
la_oenb[22] I
la_oenb[23] I
la_oenb[24] I
la_oenb[25] I
la_oenb[26] I
la_oenb[27] I
la_oenb[28] I
la_oenb[29] I
la_oenb[2] I
la_oenb[30] I
la_oenb[31] I
la_oenb[32] I
la_oenb[33] I
la_oenb[34] I
la_oenb[35] I
la_oenb[36] I
la_oenb[37] I
la_oenb[38] I
la_oenb[39] I
la_oenb[3] I
la_oenb[40] I
la_oenb[41] I
la_oenb[42] I
la_oenb[43] I
la_oenb[44] I
la_oenb[45] I
la_oenb[46] I
la_oenb[47] I
la_oenb[48] I
la_oenb[49] I
la_oenb[4] I
la_oenb[50] I
la_oenb[51] I
la_oenb[52] I
la_oenb[53] I
la_oenb[54] I
la_oenb[55] I
la_oenb[56] I
la_oenb[57] I
la_oenb[58] I
la_oenb[59] I
la_oenb[5] I
la_oenb[60] I
la_oenb[61] I
la_oenb[62] I
la_oenb[63] I
la_oenb[6] I
la_oenb[7] I
la_oenb[8] I
la_oenb[9] I
user_clock2 I
user_irq[0] O
user_irq[1] O
user_irq[2] O
wb_clk_i I
wb_rst_i I
wbs_ack_o O
wbs_adr_i[0] I
wbs_adr_i[10] I
wbs_adr_i[11] I
wbs_adr_i[12] I
wbs_adr_i[13] I
wbs_adr_i[14] I
wbs_adr_i[15] I
wbs_adr_i[16] I
wbs_adr_i[17] I
wbs_adr_i[18] I
wbs_adr_i[19] I
wbs_adr_i[1] I
wbs_adr_i[20] I
wbs_adr_i[21] I
wbs_adr_i[22] I
wbs_adr_i[23] I
wbs_adr_i[24] I
wbs_adr_i[25] I
wbs_adr_i[26] I
wbs_adr_i[27] I
wbs_adr_i[28] I
wbs_adr_i[29] I
wbs_adr_i[2] I
wbs_adr_i[30] I
wbs_adr_i[31] I
wbs_adr_i[3] I
wbs_adr_i[4] I
wbs_adr_i[5] I
wbs_adr_i[6] I
wbs_adr_i[7] I
wbs_adr_i[8] I
wbs_adr_i[9] I
wbs_cyc_i I
wbs_dat_i[0] I
wbs_dat_i[10] I
wbs_dat_i[11] I
wbs_dat_i[12] I
wbs_dat_i[13] I
wbs_dat_i[14] I
wbs_dat_i[15] I
wbs_dat_i[16] I
wbs_dat_i[17] I
wbs_dat_i[18] I
wbs_dat_i[19] I
wbs_dat_i[1] I
wbs_dat_i[20] I
wbs_dat_i[21] I
wbs_dat_i[22] I
wbs_dat_i[23] I
wbs_dat_i[24] I
wbs_dat_i[25] I
wbs_dat_i[26] I
wbs_dat_i[27] I
wbs_dat_i[28] I
wbs_dat_i[29] I
wbs_dat_i[2] I
wbs_dat_i[30] I
wbs_dat_i[31] I
wbs_dat_i[3] I
wbs_dat_i[4] I
wbs_dat_i[5] I
wbs_dat_i[6] I
wbs_dat_i[7] I
wbs_dat_i[8] I
wbs_dat_i[9] I
wbs_dat_o[0] O
wbs_dat_o[10] O
wbs_dat_o[11] O
wbs_dat_o[12] O
wbs_dat_o[13] O
wbs_dat_o[14] O
wbs_dat_o[15] O
wbs_dat_o[16] O
wbs_dat_o[17] O
wbs_dat_o[18] O
wbs_dat_o[19] O
wbs_dat_o[1] O
wbs_dat_o[20] O
wbs_dat_o[21] O
wbs_dat_o[22] O
wbs_dat_o[23] O
wbs_dat_o[24] O
wbs_dat_o[25] O
wbs_dat_o[26] O
wbs_dat_o[27] O
wbs_dat_o[28] O
wbs_dat_o[29] O
wbs_dat_o[2] O
wbs_dat_o[30] O
wbs_dat_o[31] O
wbs_dat_o[3] O
wbs_dat_o[4] O
wbs_dat_o[5] O
wbs_dat_o[6] O
wbs_dat_o[7] O
wbs_dat_o[8] O
wbs_dat_o[9] O
wbs_sel_i[0] I
wbs_sel_i[1] I
wbs_sel_i[2] I
wbs_sel_i[3] I
wbs_stb_i I
wbs_we_i I

*D_NET *1 0.436874
*CONN
*P io_in[0] I
*I *419:io_in[0] I *D tiny_user_project
*CAP
1 io_in[0] 0.00353166
2 *419:io_in[0] 0.00151923
3 *1:14 0.0377851
4 *1:13 0.0362659
5 *1:11 0.067047
6 *1:10 0.0705787
7 *419:io_in[0] *419:io_in[27] 0
8 *419:io_in[0] *20:19 0.00227901
9 *1:11 *117:16 0.0599885
10 *1:14 *4:16 0.00639546
11 *1:14 *122:19 0.0122314
12 *1:14 *165:19 0.0286886
13 *1:14 *212:19 0.109773
14 *1:14 *251:11 0.000790905
*RES
1 io_in[0] *1:10 36.675 
2 *1:10 *1:11 576.63 
3 *1:11 *1:13 4.5 
4 *1:13 *1:14 482.49 
5 *1:14 *419:io_in[0] 29.61 
*END

*D_NET *2 0.204715
*CONN
*P io_in[10] I
*I *419:io_in[10] I *D tiny_user_project
*CAP
1 io_in[10] 0.00475159
2 *419:io_in[10] 0.000989252
3 *2:12 0.0139087
4 *2:11 0.0129195
5 *2:9 0.069633
6 *2:7 0.0743846
7 *419:io_in[10] *220:9 7.71866e-05
8 *419:io_in[10] *220:12 0.000597173
9 *2:12 *75:13 0.00311764
10 *2:12 *246:11 0.0243359
11 *2:12 *252:19 0
*RES
1 io_in[10] *2:7 37.305 
2 *2:7 *2:9 542.88 
3 *2:9 *2:11 4.5 
4 *2:11 *2:12 130.41 
5 *2:12 *419:io_in[10] 22.14 
*END

*D_NET *3 0.330793
*CONN
*P io_in[11] I
*I *419:io_in[11] I *D tiny_user_project
*CAP
1 io_in[11] 0.000363112
2 *419:io_in[11] 0.00168073
3 *3:16 0.0180549
4 *3:15 0.0163742
5 *3:13 0.0920689
6 *3:11 0.092432
7 *419:io_in[11] *419:io_in[14] 6.67147e-05
8 *419:io_in[11] *103:12 0
9 *3:16 *73:13 0.00624332
10 *3:16 *143:19 0.0428318
11 *3:16 *223:18 0.0606776
*RES
1 io_in[11] *3:11 3.195 
2 *3:11 *3:13 582.39 
3 *3:13 *3:15 4.5 
4 *3:15 *3:16 265.95 
5 *3:16 *419:io_in[11] 25.2 
*END

*D_NET *4 0.285649
*CONN
*P io_in[12] I
*I *419:io_in[12] I *D tiny_user_project
*CAP
1 io_in[12] 0.000167227
2 *419:io_in[12] 0.00118552
3 *4:16 0.0243382
4 *4:15 0.0231527
5 *4:13 0.0748981
6 *4:11 0.0750654
7 *419:io_in[12] *419:la_oenb[28] 0.0051104
8 *4:16 *82:15 0.0370507
9 *4:16 *122:19 0.0382848
10 *1:14 *4:16 0.00639546
*RES
1 io_in[12] *4:11 2.115 
2 *4:11 *4:13 585.09 
3 *4:13 *4:15 4.5 
4 *4:15 *4:16 278.01 
5 *4:16 *419:io_in[12] 27.72 
*END

*D_NET *5 0.29101
*CONN
*P io_in[13] I
*I *419:io_in[13] I *D tiny_user_project
*CAP
1 io_in[13] 0.0755589
2 *419:io_in[13] 0.00290339
3 *5:8 0.0435767
4 *5:7 0.0406733
5 *5:5 0.0755589
6 *419:io_in[13] *140:31 0
7 *5:8 *70:13 0.0274523
8 *5:8 *120:19 0.00943743
9 *5:8 *263:19 0.0158494
*RES
1 io_in[13] *5:5 590.625 
2 *5:5 *5:7 4.5 
3 *5:7 *5:8 383.49 
4 *5:8 *419:io_in[13] 34.02 
*END

*D_NET *6 0.299911
*CONN
*P io_in[14] I
*I *419:io_in[14] I *D tiny_user_project
*CAP
1 io_in[14] 0.000264341
2 *419:io_in[14] 0.00324385
3 *6:16 0.0581935
4 *6:15 0.0549496
5 *6:13 0.0758362
6 *6:11 0.0761006
7 *419:io_in[14] *419:la_data_in[42] 0.000466007
8 *419:io_in[14] *103:9 0.000154731
9 *6:16 *141:15 0.026368
10 *6:16 *247:11 0.00426731
11 *419:io_in[11] *419:io_in[14] 6.67147e-05
*RES
1 io_in[14] *6:11 2.655 
2 *6:11 *6:13 593.37 
3 *6:13 *6:15 4.5 
4 *6:15 *6:16 459.09 
5 *6:16 *419:io_in[14] 38.43 
*END

*D_NET *7 0.217076
*CONN
*P io_in[15] I
*I *419:io_in[15] I *D tiny_user_project
*CAP
1 io_in[15] 0.0414305
2 *419:io_in[15] 0.000827855
3 *7:11 0.00718511
4 *7:8 0.064402
5 *7:7 0.0580447
6 *7:5 0.0414305
7 *419:io_in[15] *142:16 0
8 *419:io_in[15] *158:14 4.21968e-05
9 *419:io_in[15] *207:14 0.000171461
10 *419:io_in[15] *225:16 0.000182246
11 *419:io_in[15] *411:9 0.00203138
12 *7:11 *68:14 0.00132782
*RES
1 io_in[15] *7:5 318.825 
2 *7:5 *7:7 4.5 
3 *7:7 *7:8 452.43 
4 *7:8 *7:11 49.05 
5 *7:11 *419:io_in[15] 26.82 
*END

*D_NET *8 0.224791
*CONN
*P io_in[16] I
*I *419:io_in[16] I *D tiny_user_project
*CAP
1 io_in[16] 0.00344013
2 *419:io_in[16] 3.35209e-05
3 *8:22 0.00698733
4 *8:21 0.00695381
5 *8:19 0.0667608
6 *8:18 0.0667608
7 *8:16 0.0309763
8 *8:15 0.0344164
9 *8:19 *204:18 0
10 *8:22 *419:la_data_in[20] 0.00846142
*RES
1 io_in[16] *8:15 31.725 
2 *8:15 *8:16 195.93 
3 *8:16 *8:18 4.5 
4 *8:18 *8:19 506.25 
5 *8:19 *8:21 4.5 
6 *8:21 *8:22 57.87 
7 *8:22 *419:io_in[16] 0.225 
*END

*D_NET *9 0.139612
*CONN
*P io_in[17] I
*I *419:io_in[17] I *D tiny_user_project
*CAP
1 io_in[17] 0.00143555
2 *419:io_in[17] 0.00165134
3 *9:11 0.0500118
4 *9:10 0.0483605
5 *9:8 0.0170855
6 *9:7 0.0185211
7 *419:io_in[17] *419:la_data_in[10] 0.00163524
8 *9:11 *89:8 0
9 *9:11 *91:10 0.000911024
10 *9:11 *112:39 0
*RES
1 io_in[17] *9:7 15.525 
2 *9:7 *9:8 134.37 
3 *9:8 *9:10 4.5 
4 *9:10 *9:11 368.01 
5 *9:11 *419:io_in[17] 19.935 
*END

*D_NET *10 0.128725
*CONN
*P io_in[18] I
*I *419:io_in[18] I *D tiny_user_project
*CAP
1 io_in[18] 0.002412
2 *419:io_in[18] 0.00536265
3 *10:14 0.0176312
4 *10:13 0.0122686
5 *10:11 0.0422334
6 *10:10 0.0446454
7 *419:io_in[18] *419:wbs_dat_i[17] 0
8 *419:io_in[18] *158:14 0.000174546
9 *419:io_in[18] *225:16 0.000182246
10 *10:10 io_out[18] 0.00381516
11 *10:14 *76:13 0
*RES
1 io_in[18] *10:10 31.635 
2 *10:10 *10:11 324.27 
3 *10:11 *10:13 4.5 
4 *10:13 *10:14 95.13 
5 *10:14 *419:io_in[18] 48.6 
*END

*D_NET *11 0.264867
*CONN
*P io_in[19] I
*I *419:io_in[19] I *D tiny_user_project
*CAP
1 io_in[19] 0.000178873
2 *419:io_in[19] 0.00679011
3 *11:19 0.0488974
4 *11:18 0.0421072
5 *11:16 0.013977
6 *11:15 0.013977
7 *11:13 0.0165435
8 *11:11 0.0167223
9 *11:19 *199:14 0.0655241
10 *11:19 *242:10 0.0401491
*RES
1 io_in[19] *11:11 2.115 
2 *11:11 *11:13 127.17 
3 *11:13 *11:15 4.5 
4 *11:15 *11:16 108.27 
5 *11:16 *11:18 4.5 
6 *11:18 *11:19 449.55 
7 *11:19 *419:io_in[19] 48.555 
*END

*D_NET *12 0.430393
*CONN
*P io_in[1] I
*I *419:io_in[1] I *D tiny_user_project
*CAP
1 io_in[1] 0.000370905
2 *419:io_in[1] 0.00158533
3 *12:19 0.0047257
4 *12:18 0.00314037
5 *12:16 0.069318
6 *12:15 0.069318
7 *12:13 0.0267159
8 *12:11 0.0270868
9 *419:io_in[1] *419:wbs_adr_i[24] 2.83561e-05
10 *12:19 *75:16 0.0355761
11 *12:19 *100:15 0.0646694
12 *12:19 *137:18 0.0262396
13 *12:19 *231:15 0.089693
14 *12:19 *367:16 0.0119252
*RES
1 io_in[1] *12:11 3.195 
2 *12:11 *12:13 202.77 
3 *12:13 *12:15 4.5 
4 *12:15 *12:16 527.13 
5 *12:16 *12:18 4.5 
6 *12:18 *12:19 357.03 
7 *12:19 *419:io_in[1] 22.68 
*END

*D_NET *13 0.130569
*CONN
*P io_in[20] I
*I *419:io_in[20] I *D tiny_user_project
*CAP
1 io_in[20] 0.0277932
2 *419:io_in[20] 7.47341e-05
3 *13:11 0.0207429
4 *13:10 0.0206681
5 *13:8 0.016643
6 *13:7 0.016643
7 *13:5 0.0277932
8 *13:11 *419:la_data_in[54] 0.000210465
*RES
1 io_in[20] *13:5 213.525 
2 *13:5 *13:7 4.5 
3 *13:7 *13:8 129.33 
4 *13:8 *13:10 4.5 
5 *13:10 *13:11 152.37 
6 *13:11 *419:io_in[20] 18.63 
*END

*D_NET *14 0.253346
*CONN
*P io_in[21] I
*I *419:io_in[21] I *D tiny_user_project
*CAP
1 io_in[21] 0.00197758
2 *419:io_in[21] 0.00137452
3 *14:14 0.0232979
4 *14:13 0.0219234
5 *14:11 0.0752651
6 *14:10 0.0772426
7 *419:io_in[21] *419:la_data_in[36] 0
8 *419:io_in[21] *144:19 0.000184142
9 *14:10 *16:8 0.00629802
10 *14:11 *416:21 0.0112126
11 *14:14 *122:16 0.00270336
12 *14:14 *172:14 0
13 *14:14 *186:13 0.0146395
14 *14:14 *303:16 0.013917
15 *14:14 *329:14 0.00331015
16 *14:14 *345:14 0
*RES
1 io_in[21] *14:10 32.535 
2 *14:10 *14:11 585.09 
3 *14:11 *14:13 4.5 
4 *14:13 *14:14 213.39 
5 *14:14 *419:io_in[21] 22.8365 
*END

*D_NET *15 0.198217
*CONN
*P io_in[22] I
*I *419:io_in[22] I *D tiny_user_project
*CAP
1 io_in[22] 0.00485079
2 *419:io_in[22] 0.000117256
3 *15:17 0.00581779
4 *15:12 0.0553489
5 *15:11 0.0496483
6 *15:9 0.0377085
7 *15:7 0.0425593
8 *419:io_in[22] *224:81 0.000365086
9 *419:io_in[22] *225:16 0.000817793
10 *15:17 *60:8 0.000714909
11 *15:17 *187:18 0.000173381
12 *15:17 *256:11 9.45744e-05
*RES
1 io_in[22] *15:7 37.305 
2 *15:7 *15:9 290.34 
3 *15:9 *15:11 4.5 
4 *15:11 *15:12 386.19 
5 *15:12 *15:17 48.51 
6 *15:17 *419:io_in[22] 7.155 
*END

*D_NET *16 0.432564
*CONN
*P io_in[23] I
*I *419:io_in[23] I *D tiny_user_project
*CAP
1 io_in[23] 0.00105188
2 *419:io_in[23] 0.00122986
3 *16:11 0.0470229
4 *16:10 0.0457931
5 *16:8 0.0232964
6 *16:7 0.0243482
7 *419:io_in[23] *419:wbs_dat_i[0] 0
8 *16:8 io_out[18] 0.000312634
9 *16:8 *51:19 0.0611159
10 *16:8 *54:21 0.192561
11 *16:11 io_out[18] 9.23413e-06
12 *16:11 *178:19 0.0119002
13 *16:11 *261:13 0.0176242
14 *14:10 *16:8 0.00629802
*RES
1 io_in[23] *16:7 12.645 
2 *16:7 *16:8 497.25 
3 *16:8 *16:10 4.5 
4 *16:10 *16:11 384.93 
5 *16:11 *419:io_in[23] 13.185 
*END

*D_NET *17 0.393343
*CONN
*P io_in[24] I
*I *419:io_in[24] I *D tiny_user_project
*CAP
1 io_in[24] 0.000201168
2 *419:io_in[24] 0.000891674
3 *17:19 0.0217142
4 *17:18 0.0208225
5 *17:16 0.0754512
6 *17:15 0.0754512
7 *17:13 0.0414168
8 *17:11 0.041618
9 *419:io_in[24] *419:wbs_dat_i[2] 8.22701e-05
10 *17:19 *419:wbs_adr_i[3] 0.000299485
11 *17:19 *419:wbs_dat_i[16] 9.44268e-05
12 *17:19 *419:wbs_dat_i[1] 9.86977e-05
13 *17:19 *24:19 0
14 *17:19 *42:11 0
15 *17:19 *377:16 0.115201
*RES
1 io_in[24] *17:11 1.935 
2 *17:11 *17:13 262.71 
3 *17:13 *17:15 4.5 
4 *17:15 *17:16 574.11 
5 *17:16 *17:18 4.5 
6 *17:18 *17:19 292.23 
7 *17:19 *419:io_in[24] 18.8765 
*END

*D_NET *18 0.293576
*CONN
*P io_in[25] I
*I *419:io_in[25] I *D tiny_user_project
*CAP
1 io_in[25] 0.000125876
2 *419:io_in[25] 0.000705199
3 *18:19 0.00987277
4 *18:18 0.00916757
5 *18:16 0.0663691
6 *18:15 0.0663691
7 *18:13 0.0350915
8 *18:11 0.0352174
9 *18:16 *359:13 0
10 *18:19 *26:19 0.0470686
11 *18:19 *95:11 0
12 *18:19 *383:11 0.0192884
13 *18:19 *390:11 0.000652373
14 *18:19 *401:11 0.00314348
15 *18:19 *415:14 0.000504468
*RES
1 io_in[25] *18:11 1.395 
2 *18:11 *18:13 222.21 
3 *18:13 *18:15 4.5 
4 *18:15 *18:16 505.53 
5 *18:16 *18:18 4.5 
6 *18:18 *18:19 190.17 
7 *18:19 *419:io_in[25] 17.7965 
*END

*D_NET *19 0.17065
*CONN
*P io_in[26] I
*I *419:io_in[26] I *D tiny_user_project
*CAP
1 io_in[26] 0.00224804
2 *419:io_in[26] 0.000345546
3 *19:11 0.048614
4 *19:10 0.0482684
5 *19:8 0.0344487
6 *19:7 0.0366967
7 *419:io_in[26] *419:wbs_stb_i 2.85162e-05
8 *19:8 *314:13 0
*RES
1 io_in[26] *19:7 21.465 
2 *19:7 *19:8 264.87 
3 *19:8 *19:10 4.5 
4 *19:10 *19:11 368.01 
5 *19:11 *419:io_in[26] 11.88 
*END

*D_NET *20 0.161487
*CONN
*P io_in[27] I
*I *419:io_in[27] I *D tiny_user_project
*CAP
1 io_in[27] 0.00035683
2 *419:io_in[27] 0.000150089
3 *20:19 0.0233957
4 *20:18 0.0232456
5 *20:16 0.0295038
6 *20:15 0.0295038
7 *20:13 0.0263478
8 *20:11 0.0267046
9 *20:16 *357:9 0
10 *419:io_in[0] *419:io_in[27] 0
11 *419:io_in[0] *20:19 0.00227901
*RES
1 io_in[27] *20:11 3.015 
2 *20:11 *20:13 206.01 
3 *20:13 *20:15 4.5 
4 *20:15 *20:16 224.19 
5 *20:16 *20:18 4.5 
6 *20:18 *20:19 179.01 
7 *20:19 *419:io_in[27] 10.17 
*END

*D_NET *21 0.138044
*CONN
*P io_in[28] I
*I *419:io_in[28] I *D tiny_user_project
*CAP
1 io_in[28] 0.000249598
2 *419:io_in[28] 0.000214255
3 *21:19 0.0213011
4 *21:18 0.0210869
5 *21:16 0.0182988
6 *21:15 0.0182988
7 *21:13 0.0291724
8 *21:11 0.029422
9 *419:io_in[28] *419:wbs_dat_i[10] 0
10 *21:16 *52:20 0
11 *21:19 *417:16 0
*RES
1 io_in[28] *21:11 2.475 
2 *21:11 *21:13 227.61 
3 *21:13 *21:15 4.5 
4 *21:15 *21:16 137.79 
5 *21:16 *21:18 4.5 
6 *21:18 *21:19 157.41 
7 *21:19 *419:io_in[28] 10.71 
*END

*D_NET *22 0.130647
*CONN
*P io_in[29] I
*I *419:io_in[29] I *D tiny_user_project
*CAP
1 io_in[29] 0.000177869
2 *419:io_in[29] 0.000370459
3 *22:19 0.0180099
4 *22:18 0.0176394
5 *22:16 0.0137079
6 *22:15 0.0137079
7 *22:13 0.0305146
8 *22:11 0.0306925
9 *22:13 *357:12 0.00582631
10 *22:16 *395:14 0
*RES
1 io_in[29] *22:11 1.935 
2 *22:11 *22:13 254.61 
3 *22:13 *22:15 4.5 
4 *22:15 *22:16 102.69 
5 *22:16 *22:18 4.5 
6 *22:18 *22:19 130.41 
7 *22:19 *419:io_in[29] 11.79 
*END

*D_NET *23 0.38554
*CONN
*P io_in[2] I
*I *419:io_in[2] I *D tiny_user_project
*CAP
1 io_in[2] 0.000423448
2 *419:io_in[2] 0.00038542
3 *23:11 0.0489819
4 *23:10 0.0485965
5 *23:8 0.0063619
6 *23:7 0.00678535
7 *419:io_in[2] *419:io_in[3] 0.00023252
8 *419:io_in[2] *38:11 0.000355867
9 *419:io_in[2] *198:5 0.000862621
10 *419:io_in[2] *256:11 0
11 *419:io_in[2] *349:14 0.00112551
12 *419:io_in[2] *384:10 0.000341297
13 *23:8 *32:8 0.148897
14 *23:8 *39:10 0.00138345
15 *23:8 *42:14 0.0864722
16 *23:8 *50:14 0.0267647
17 *23:8 *99:16 0.00755167
18 *23:11 *419:io_in[3] 1.86522e-05
*RES
1 io_in[2] *23:7 7.785 
2 *23:7 *23:8 448.11 
3 *23:8 *23:10 4.5 
4 *23:10 *23:11 371.25 
5 *23:11 *419:io_in[2] 16.695 
*END

*D_NET *24 0.223137
*CONN
*P io_in[30] I
*I *419:io_in[30] I *D tiny_user_project
*CAP
1 io_in[30] 0.000113196
2 *419:io_in[30] 0.000909149
3 *24:19 0.0315341
4 *24:18 0.0306249
5 *24:16 0.0220694
6 *24:15 0.0220694
7 *24:13 0.0221163
8 *24:11 0.0222295
9 *419:io_in[30] *79:10 1.29294e-05
10 *419:io_in[30] *200:16 0.000889177
11 *24:16 *385:16 0
12 *24:19 *419:wbs_dat_i[16] 0.000632431
13 *24:19 *419:wbs_dat_i[1] 0.000644703
14 *24:19 *42:11 0.00305966
15 *24:19 *46:11 0.0295343
16 *24:19 *181:16 0.0189586
17 *24:19 *182:18 0.00445707
18 *24:19 *306:16 0.00035342
19 *24:19 *345:14 0.0129285
20 *24:19 *377:16 0
21 *17:19 *24:19 0
*RES
1 io_in[30] *24:11 1.395 
2 *24:11 *24:13 170.91 
3 *24:13 *24:15 4.5 
4 *24:15 *24:16 167.85 
5 *24:16 *24:18 4.5 
6 *24:18 *24:19 348.39 
7 *24:19 *419:io_in[30] 20.3165 
*END

*D_NET *25 0.105219
*CONN
*P io_in[31] I
*I *419:io_in[31] I *D tiny_user_project
*CAP
1 io_in[31] 0.00638456
2 *419:io_in[31] 0.000150089
3 *25:15 0.0437403
4 *25:14 0.0446598
5 *25:9 0.00745417
6 *419:io_in[31] *419:la_oenb[39] 0
7 *25:15 *419:la_oenb[39] 0.00282993
*RES
1 io_in[31] *25:9 48.465 
2 *25:9 *25:14 17.19 
3 *25:14 *25:15 336.87 
4 *25:15 *419:io_in[31] 10.17 
*END

*D_NET *26 0.205614
*CONN
*P io_in[32] I
*I *419:io_in[32] I *D tiny_user_project
*CAP
1 io_in[32] 0.000323383
2 *419:io_in[32] 0.000666227
3 *26:19 0.0210407
4 *26:18 0.0241917
5 *26:13 0.041972
6 *26:11 0.0384782
7 *26:19 *52:16 0.00577214
8 *26:19 *52:17 0
9 *26:19 *95:11 0
10 *26:19 *113:11 0.00944889
11 *26:19 *200:13 0.00817764
12 *26:19 *377:16 7.11356e-05
13 *26:19 *390:11 0.000397452
14 *26:19 *401:11 0.0074034
15 *26:19 *415:14 0.000602327
16 *18:19 *26:19 0.0470686
*RES
1 io_in[32] *26:11 3.015 
2 *26:11 *26:13 292.41 
3 *26:13 *26:18 36.45 
4 *26:18 *26:19 266.85 
5 *26:19 *419:io_in[32] 17.6165 
*END

*D_NET *27 0.120817
*CONN
*P io_in[33] I
*I *419:io_in[33] I *D tiny_user_project
*CAP
1 io_in[33] 0.000242542
2 *419:io_in[33] 0.000150089
3 *27:19 0.0400195
4 *27:18 0.0398694
5 *27:16 0.008651
6 *27:15 0.008651
7 *27:13 0.0110516
8 *27:11 0.0112941
9 *27:13 *338:16 0.000887582
10 *27:16 *375:13 0
*RES
1 io_in[33] *27:11 2.475 
2 *27:11 *27:13 87.21 
3 *27:13 *27:15 4.5 
4 *27:15 *27:16 64.89 
5 *27:16 *27:18 4.5 
6 *27:18 *27:19 297.81 
7 *27:19 *419:io_in[33] 10.17 
*END

*D_NET *28 0.273303
*CONN
*P io_in[34] I
*I *419:io_in[34] I *D tiny_user_project
*CAP
1 io_in[34] 0.00192467
2 *419:io_in[34] 0.000230761
3 *28:11 0.0333831
4 *28:10 0.0331523
5 *28:8 0.0381078
6 *28:7 0.0400324
7 *28:8 *313:13 0
8 *28:11 *419:la_data_in[27] 0.00449648
9 *28:11 *60:23 0.121976
*RES
1 io_in[34] *28:7 18.765 
2 *28:7 *28:8 292.77 
3 *28:8 *28:10 4.5 
4 *28:10 *28:11 370.71 
5 *28:11 *419:io_in[34] 10.17 
*END

*D_NET *29 0.375306
*CONN
*P io_in[35] I
*I *419:io_in[35] I *D tiny_user_project
*CAP
1 io_in[35] 0.00303436
2 *419:io_in[35] 0.00134561
3 *29:19 0.0259787
4 *29:18 0.0246331
5 *29:16 0.0523958
6 *29:15 0.0554302
7 *419:io_in[35] *419:io_in[7] 0.000434642
8 *419:io_in[35] *36:11 9.39288e-05
9 *419:io_in[35] *64:20 0.000674557
10 *419:io_in[35] *164:16 0.00118724
11 *419:io_in[35] *384:11 0.000384409
12 *29:16 wbs_ack_o 0
13 *29:19 *64:21 0.023051
14 *29:19 *164:16 0.00546533
15 *29:19 *314:16 0.154044
16 *29:19 *384:11 0.0271533
*RES
1 io_in[35] *29:15 28.305 
2 *29:15 *29:16 402.39 
3 *29:16 *29:18 4.5 
4 *29:18 *29:19 528.03 
5 *29:19 *419:io_in[35] 34.92 
*END

*D_NET *30 0.377439
*CONN
*P io_in[36] I
*I *419:io_in[36] I *D tiny_user_project
*CAP
1 io_in[36] 0.00177706
2 *419:io_in[36] 0.0026671
3 *30:12 0.0339636
4 *30:11 0.0312965
5 *30:9 0.0777669
6 *30:7 0.079544
7 *419:io_in[36] *419:wbs_dat_i[0] 0.000123764
8 *30:12 *69:10 0.133056
9 *30:12 *132:19 0.0172436
*RES
1 io_in[36] *30:7 13.185 
2 *30:7 *30:9 583.38 
3 *30:9 *30:11 4.5 
4 *30:11 *30:12 440.19 
5 *30:12 *419:io_in[36] 23.535 
*END

*D_NET *31 0.46108
*CONN
*P io_in[37] I
*I *419:io_in[37] I *D tiny_user_project
*CAP
1 io_in[37] 0.000323383
2 *419:io_in[37] 0.00129426
3 *31:16 0.0218446